%chk=/home/boittier/MDCM/nms_sampling/butane_geom.xyz.dir/butane_opt_558.chk
%nproc=8
%mem=16000MB
#p B2PLYPD3/Def2QZVP 

butane_opt

0 1
C  -3.882216   0.177781  -0.064554
C  -2.664586  -0.513453   0.093185
H  -4.917415  -0.406367   0.785089
H  -3.964195   1.329049  -1.341174
H  -3.851806   0.306816   0.306939
C  -1.485790   0.193168   0.163886
H  -2.563709  -1.090285  -0.834822
H  -2.755175  -0.987635   0.847815
C  -0.159665  -0.743708  -0.082839
H  -1.392716   1.047645   1.120523
H  -1.411674   0.700410  -0.660804
H  -0.305135  -1.121697   0.766865
H   0.710071  -0.240234   0.102965
H  -0.193864  -1.430796  -1.010081
