%chk=/home/boittier/MDCM/nms_sampling/butane_geom.xyz.dir/butane_opt_2026.chk
%nproc=8
%mem=16000MB
#p B2PLYPD3/Def2QZVP 

butane_opt

0 1
C  -3.832879   0.240973  -0.166385
C  -2.696001  -0.596939   0.151627
H  -5.041326  -0.449237   0.233952
H  -3.790517   1.144008  -1.284892
H  -3.898139   0.786252   0.677332
C  -1.417330   0.221036   0.223618
H  -2.361836  -1.227113  -0.647752
H  -3.070532  -1.448899   1.202102
C  -0.218395  -0.700822  -0.127154
H  -1.321254   1.263731   1.365948
H  -1.729599   0.564943  -0.318468
H   0.116372  -1.661882   0.867490
H   0.543310  -0.251154  -0.626808
H  -0.458664  -1.182754  -0.971711

