%chk=/home/boittier/MDCM/nms_sampling/butane_geom.xyz.dir/butane_opt_1834.chk
%nproc=8
%mem=16000MB
#p B2PLYPD3/Def2QZVP 

butane_opt

0 1
C  -3.911384   0.265522  -0.107613
C  -2.771592  -0.645877   0.205379
H  -4.846531  -0.440960   0.143699
H  -3.914635   1.136921  -1.092711
H  -4.168071   0.699756   0.484489
C  -1.391892   0.295786   0.122157
H  -2.864449  -1.139770  -0.510423
H  -3.028389  -1.377790   1.256009
C  -0.089375  -0.726130  -0.101839
H  -1.651676   0.751991   0.807608
H  -1.269684   0.756348  -0.806547
H   0.034958  -0.730733   0.425121
H   0.744767  -0.308273   0.572360
H  -0.079908  -2.098450  -1.343636
