%chk=/home/boittier/MDCM/nms_sampling/butane_geom.xyz.dir/butane_opt_79.chk
%nproc=8
%mem=16000MB
#p B2PLYPD3/Def2QZVP 

butane_opt

0 1
C  -3.930217   0.310419  -0.094736
C  -2.701249  -0.627027   0.156142
H  -4.883818  -0.363581  -0.237034
H  -3.869878   0.769506  -0.881569
H  -4.115485   1.032475   0.887737
C  -1.409531   0.118702   0.094770
H  -2.655105  -1.182339  -0.633078
H  -2.666079  -1.336223   1.063966
C  -0.176026  -0.668798  -0.050423
H  -1.173763   0.902561   1.013152
H  -1.373703   0.656540  -0.689696
H  -0.161885  -1.254989   0.790484
H   0.758008  -0.025616  -0.304569
H  -0.272008  -1.270748  -0.842913
