%chk=/home/boittier/MDCM/nms_sampling/butane_geom.xyz.dir/butane_opt_992.chk
%nproc=8
%mem=16000MB
#p B2PLYPD3/Def2QZVP 

butane_opt

0 1
C  -3.873959   0.275134  -0.166180
C  -2.670119  -0.649448   0.287400
H  -4.572486  -0.043261   0.022771
H  -4.046654   1.239233  -1.219940
H  -4.195377   0.678358   0.642848
C  -1.423201   0.128180   0.140171
H  -2.492709  -1.313497  -0.501700
H  -2.578267  -1.268710   1.028314
C  -0.224787  -0.629379  -0.134384
H  -1.158079   0.687599   0.942211
H  -1.652230   0.680869  -0.706317
H  -0.406254  -0.846198   0.588840
H   0.767944   0.140520   0.553389
H  -0.397430  -1.898407  -1.487098

