%chk=/home/boittier/MDCM/nms_sampling/butane_geom.xyz.dir/butane_opt_639.chk
%nproc=8
%mem=16000MB
#p B2PLYPD3/Def2QZVP 

butane_opt

0 1
C  -3.929373   0.224598   0.147159
C  -2.813290  -0.510104  -0.122752
H  -5.025188  -0.496782  -0.319727
H  -3.989487   0.654619  -0.571837
H  -4.033780   0.983536   1.126754
C  -1.379706   0.225329  -0.062967
H  -2.955650  -1.451401  -1.080996
H  -2.919204  -1.209113   0.899363
C  -0.031934  -0.750487   0.116056
H  -1.636364   1.037697   0.839101
H  -1.452509   0.838658  -0.849194
H   0.161956  -2.013809   1.317311
H   0.809008  -0.281494  -0.553365
H  -0.096816  -0.805239  -0.247255
