%chk=/home/boittier/MDCM/nms_sampling/butane_geom.xyz.dir/butane_opt_2075.chk
%nproc=8
%mem=16000MB
#p B2PLYPD3/Def2QZVP 

butane_opt

0 1
C  -3.971028   0.216113  -0.064264
C  -2.788095  -0.589617   0.107577
H  -4.958607  -0.279014  -0.232579
H  -3.824607   0.741765  -0.928124
H  -4.063004   0.738179   0.671277
C  -1.356877   0.315855   0.172871
H  -2.557974  -1.275239  -0.861928
H  -2.776855  -1.177133   1.040759
C  -0.106043  -0.768101  -0.048285
H  -1.404748   1.051880   1.065466
H  -1.134760   0.963192  -0.736349
H   0.290428  -1.652312   1.037608
H   0.566083  -0.401260  -0.828634
H  -0.432809  -1.335990  -0.818945

