%chk=/home/boittier/MDCM/nms_sampling/butane_geom.xyz.dir/butane_opt_2191.chk
%nproc=8
%mem=16000MB
#p B2PLYPD3/Def2QZVP 

butane_opt

0 1
C  -3.866963   0.228643  -0.163331
C  -2.746866  -0.599607   0.243356
H  -4.881056  -0.487136  -0.352653
H  -3.589312   0.690020  -1.134304
H  -4.101918   1.204980   0.950448
C  -1.458138   0.285974   0.190743
H  -2.410753  -1.235862  -0.449075
H  -3.159376  -1.290823   1.115185
C  -0.127783  -0.749487  -0.106026
H  -1.167415   0.918589   0.977113
H  -1.569153   0.843722  -0.760596
H   0.117738  -1.310460   0.727191
H   0.660273  -0.301884  -0.494569
H  -0.481996  -1.498962  -1.053755
