%chk=/home/boittier/MDCM/nms_sampling/butane_geom.xyz.dir/butane_opt_2715.chk
%nproc=8
%mem=16000MB
#p B2PLYPD3/Def2QZVP 

butane_opt

0 1
C  -3.837714   0.244593  -0.013117
C  -2.732921  -0.605418   0.118942
H  -4.890817  -0.462183   0.155061
H  -4.051895   0.901032  -1.000769
H  -3.806306   0.612268   0.600767
C  -1.451879   0.262576  -0.002794
H  -2.944460  -1.224713  -0.792953
H  -2.629574  -1.301811   1.193010
C  -0.154024  -0.732552   0.035224
H  -1.714991   0.939756   0.733335
H  -1.534964   1.059375  -1.046844
H  -0.101149  -0.765173   0.604530
H   0.709565  -0.182830   0.627173
H   0.063383  -2.136914  -1.400628

