%chk=/home/boittier/MDCM/nms_sampling/butane_geom.xyz.dir/butane_opt_4.chk
%nproc=8
%mem=16000MB
#p B2PLYPD3/Def2QZVP 

butane_opt

0 1
C  -3.926299   0.236369   0.088137
C  -2.699265  -0.601835  -0.031121
H  -4.770366  -0.304100   0.112060
H  -3.960988   0.845318  -0.793126
H  -3.914417   0.991954   0.992588
C  -1.421682   0.203416  -0.077425
H  -2.841014  -1.234050  -0.847911
H  -2.634169  -1.208599   0.867974
C  -0.168469  -0.712600   0.097926
H  -1.404518   0.877382   0.723034
H  -1.371177   0.858223  -0.969573
H  -0.299812  -1.311342   0.984821
H   0.732650  -0.087844   0.239909
H   0.034291  -1.413722  -0.801546
