%chk=/home/boittier/MDCM/nms_sampling/butane_geom.xyz.dir/butane_opt_550.chk
%nproc=8
%mem=16000MB
#p B2PLYPD3/Def2QZVP 

butane_opt

0 1
C  -4.002496   0.295521   0.104958
C  -2.709609  -0.696508  -0.010805
H  -4.767212  -0.007493   0.060695
H  -4.263354   0.835955  -0.736665
H  -3.801152   1.022822   1.141697
C  -1.356165   0.208072  -0.161700
H  -2.879200  -1.163198  -0.785203
H  -2.454534  -1.494274   0.904887
C  -0.175857  -0.674309   0.078964
H  -1.139074   0.694129   0.571506
H  -1.173360   0.879470  -0.988986
H  -0.758571  -1.011325   0.996189
H   0.718998  -0.006768   1.017118
H   0.409256  -1.821418  -0.938994

