%chk=/home/boittier/MDCM/nms_sampling/butane_geom.xyz.dir/butane_opt_1125.chk
%nproc=8
%mem=16000MB
#p B2PLYPD3/Def2QZVP 

butane_opt

0 1
C  -3.907360   0.198639  -0.154163
C  -2.702930  -0.573236   0.205485
H  -4.654253  -0.338936  -0.325729
H  -3.375966   0.410879  -0.812404
H  -4.026548   1.141723   0.851373
C  -1.491525   0.296128   0.108956
H  -2.756195  -1.040332  -0.486102
H  -2.777039  -1.522325   1.478709
C  -0.147799  -0.759670  -0.085495
H  -1.358046   1.099889   1.073832
H  -1.603731   0.851012  -0.680619
H   0.134968  -1.252766   0.730575
H   0.635568  -0.168364  -0.187856
H  -0.259311  -1.612017  -1.079409
