%chk=/home/boittier/MDCM/nms_sampling/butane_geom.xyz.dir/butane_opt_1265.chk
%nproc=8
%mem=16000MB
#p B2PLYPD3/Def2QZVP 

butane_opt

0 1
C  -3.895898   0.257689   0.127416
C  -2.668145  -0.640097  -0.031159
H  -4.880025  -0.338183  -0.001562
H  -4.134320   0.736538  -0.732082
H  -3.905396   0.977785   1.024856
C  -1.441575   0.226549  -0.129629
H  -2.815707  -1.305970  -0.952921
H  -2.751495  -1.083272   0.768433
C  -0.166861  -0.702268   0.117877
H  -1.505552   0.873091   0.690795
H  -1.435787   0.834091  -1.053727
H  -0.366077  -1.392771   1.103288
H   0.796554  -0.087898   0.279685
H   0.053119  -1.403021  -0.692030

