%chk=/home/boittier/MDCM/nms_sampling/butane_geom.xyz.dir/butane_opt_1932.chk
%nproc=8
%mem=16000MB
#p B2PLYPD3/Def2QZVP 

butane_opt

0 1
C  -4.015034   0.296966  -0.182346
C  -2.733632  -0.638435   0.266318
H  -4.783934  -0.050718  -0.604900
H  -4.029630   0.913491  -0.960792
H  -4.449868   1.081883   0.761023
C  -1.326846   0.110599   0.225983
H  -2.248827  -1.227912  -0.456518
H  -3.045946  -1.544828   1.386310
C  -0.112172  -0.642231  -0.162882
H  -1.014040   0.789719   1.090117
H  -1.462469   0.681369  -0.696850
H  -0.035946  -1.233962   0.691276
H   0.884845   0.109667  -0.295893
H  -0.581646  -1.497463  -1.220114
