%chk=/home/boittier/MDCM/nms_sampling/butane_geom.xyz.dir/butane_opt_167.chk
%nproc=8
%mem=16000MB
#p B2PLYPD3/Def2QZVP 

butane_opt

0 1
C  -3.992258   0.331179   0.172357
C  -2.647291  -0.622278  -0.228069
H  -4.946699  -0.356707   0.513577
H  -4.515211   0.804799  -0.458610
H  -3.800532   1.028690   1.082497
C  -1.339018   0.092362  -0.104509
H  -2.922615  -1.546243  -1.214061
H  -2.553222  -1.343363   0.712568
C  -0.191017  -0.635981   0.205636
H  -1.416957   0.609628   0.535762
H  -1.181899   0.975201  -1.152140
H  -0.357517  -1.468399   1.259331
H   0.819061  -0.084836   0.003811
H  -0.103085  -1.047881  -0.365878

