%chk=/home/boittier/MDCM/nms_sampling/butane_geom.xyz.dir/butane_opt_1272.chk
%nproc=8
%mem=16000MB
#p B2PLYPD3/Def2QZVP 

butane_opt

0 1
C  -3.995805   0.222615  -0.112816
C  -2.744271  -0.621627   0.246848
H  -4.853601  -0.249545  -0.195963
H  -3.688147   0.785240  -1.063637
H  -4.218549   1.123763   0.757167
C  -1.366584   0.292456   0.102878
H  -2.690922  -1.411382  -0.780885
H  -2.875216  -1.279670   1.180154
C  -0.120087  -0.742180  -0.072633
H  -1.038587   0.897832   0.861622
H  -1.668156   1.014158  -0.844494
H  -0.061414  -1.224761   0.666379
H   0.810548  -0.083221   0.050067
H  -0.011201  -1.868817  -1.136528
