%chk=/home/boittier/MDCM/nms_sampling/butane_geom.xyz.dir/butane_opt_272.chk
%nproc=8
%mem=16000MB
#p B2PLYPD3/Def2QZVP 

butane_opt

0 1
C  -3.852997   0.234309   0.095275
C  -2.685473  -0.590120  -0.027629
H  -4.729551  -0.223623   0.090548
H  -3.896305   0.942760  -0.779964
H  -3.879131   0.781632   0.942399
C  -1.430786   0.203012  -0.069553
H  -2.798976  -1.185905  -0.727746
H  -2.933969  -1.148481   0.922257
C  -0.207608  -0.692249   0.095487
H  -1.606492   0.639042   0.526611
H  -1.219076   1.010997  -0.979754
H  -0.293389  -1.174441   0.808948
H   0.644954  -0.154074   0.524728
H  -0.184095  -1.843235  -1.049261
