%chk=/home/boittier/MDCM/nms_sampling/butane_geom.xyz.dir/butane_opt_1757.chk
%nproc=8
%mem=16000MB
#p B2PLYPD3/Def2QZVP 

butane_opt

0 1
C  -3.914989   0.199525   0.102116
C  -2.771717  -0.611381  -0.043985
H  -4.837736  -0.336046   0.232104
H  -3.974386   0.826958  -0.665717
H  -4.001206   1.197343   1.185636
C  -1.386611   0.318141  -0.175580
H  -2.762893  -1.333929  -0.788482
H  -2.797362  -1.233402   0.964463
C  -0.146075  -0.781777   0.126179
H  -1.445627   1.037273   0.761554
H  -1.434699   0.836875  -1.052742
H  -0.343656  -1.335120   0.913913
H   0.830718  -0.087276   0.480047
H   0.393506  -1.537292  -0.673772
