%chk=/home/boittier/MDCM/nms_sampling/butane_geom.xyz.dir/butane_opt_1083.chk
%nproc=8
%mem=16000MB
#p B2PLYPD3/Def2QZVP 

butane_opt

0 1
C  -3.910829   0.208143  -0.079681
C  -2.770449  -0.581401   0.247930
H  -4.778417  -0.493817  -0.822492
H  -3.428523   0.524288  -0.823989
H  -4.435122   1.375712   1.016802
C  -1.413934   0.244445   0.030850
H  -2.655532  -1.060812  -0.501491
H  -2.685703  -1.307978   1.159653
C  -0.118601  -0.715882  -0.090875
H  -1.409324   1.122060   0.987076
H  -1.340556   0.703344  -0.636791
H   0.107112  -1.551786   0.844338
H   0.451446  -0.401536  -0.052394
H  -0.223877  -1.315298  -0.975012
