%chk=/home/boittier/MDCM/nms_sampling/butane_geom.xyz.dir/butane_opt_847.chk
%nproc=8
%mem=16000MB
#p B2PLYPD3/Def2QZVP 

butane_opt

0 1
C  -4.034982   0.291293  -0.077651
C  -2.673840  -0.718897   0.142313
H  -4.759835  -0.225904   0.088135
H  -4.024840   1.347305  -1.232621
H  -4.103722   0.567850   0.428337
C  -1.375971   0.227578   0.160316
H  -2.515846  -1.096727  -0.470182
H  -2.701310  -1.407939   1.198552
C  -0.178273  -0.674396  -0.062662
H  -1.144889   0.719519   0.902067
H  -1.334654   0.872879  -0.816752
H   0.148352  -0.808798   0.405304
H   0.735171   0.015175   0.437101
H  -0.197172  -1.963740  -1.525753

