%chk=/home/boittier/MDCM/nms_sampling/butane_geom.xyz.dir/butane_opt_2212.chk
%nproc=8
%mem=16000MB
#p B2PLYPD3/Def2QZVP 

butane_opt

0 1
C  -3.968927   0.220205  -0.106902
C  -2.781909  -0.556995   0.172399
H  -4.882240  -0.478725  -0.451691
H  -3.718844   0.704183  -0.805949
H  -4.112578   1.127738   0.952998
C  -1.353264   0.260365   0.093916
H  -2.700676  -0.955206  -0.405014
H  -3.015458  -1.466922   1.170944
C  -0.090964  -0.791654  -0.055188
H  -1.627846   1.095066   1.012123
H  -1.436832   0.668886  -0.642353
H   0.089004  -1.186664   0.602723
H   0.903448  -0.182604  -0.435411
H  -0.161996  -1.367441  -0.831540
