%chk=/home/boittier/MDCM/nms_sampling/butane_geom.xyz.dir/butane_opt_2482.chk
%nproc=8
%mem=16000MB
#p B2PLYPD3/Def2QZVP 

butane_opt

0 1
C  -3.934116   0.218996  -0.188132
C  -2.674521  -0.529302   0.257470
H  -4.693068  -0.243125  -0.233271
H  -3.661832   0.675985  -1.076136
H  -4.082678   1.091120   0.772339
C  -1.454834   0.154963   0.159648
H  -2.283974  -1.062000  -0.252612
H  -3.058963  -1.574507   1.475397
C  -0.180903  -0.689711  -0.138112
H  -1.267944   1.035327   1.171237
H  -1.579097   0.634774  -0.660308
H  -0.200746  -1.175699   0.525971
H   0.987046   0.107116  -0.063258
H  -0.284465  -1.769934  -1.297764
