%chk=/home/boittier/MDCM/nms_sampling/butane_geom.xyz.dir/butane_opt_535.chk
%nproc=8
%mem=16000MB
#p B2PLYPD3/Def2QZVP 

butane_opt

0 1
C  -4.016272   0.325568  -0.056228
C  -2.653108  -0.713885   0.101244
H  -4.752779  -0.274570   0.403800
H  -4.545651   1.408475  -1.094396
H  -4.058526   0.409622   0.460006
C  -1.342159   0.143606   0.055066
H  -2.509760  -1.367693  -0.697013
H  -2.775545  -1.291079   0.979670
C  -0.177528  -0.621454  -0.052730
H  -1.228118   1.202892   1.212478
H  -1.411828   0.532397  -0.479263
H  -0.137455  -1.166154   0.780386
H   0.643751  -0.135344   0.196915
H   0.020365  -1.394717  -0.963660

