%chk=/home/boittier/MDCM/nms_sampling/butane_geom.xyz.dir/butane_opt_940.chk
%nproc=8
%mem=16000MB
#p B2PLYPD3/Def2QZVP 

butane_opt

0 1
C  -3.985662   0.283832  -0.020264
C  -2.695822  -0.692966   0.062050
H  -4.766713  -0.182704   0.242898
H  -4.306676   1.096892  -0.997467
H  -3.942738   0.906471   0.729010
C  -1.383697   0.191934   0.028731
H  -2.593923  -1.190195  -0.612336
H  -2.770259  -1.349990   1.027914
C  -0.129446  -0.685198   0.004820
H  -1.256025   0.892434   0.942619
H  -1.384251   0.726937  -0.857951
H  -0.335941  -0.989121   0.760463
H   0.811442  -0.009821   0.300565
H  -0.136387  -1.544080  -1.036427
