%chk=/home/boittier/MDCM/nms_sampling/butane_geom.xyz.dir/butane_opt_378.chk
%nproc=8
%mem=16000MB
#p B2PLYPD3/Def2QZVP 

butane_opt

0 1
C  -3.920051   0.226916  -0.079240
C  -2.715706  -0.609273   0.200259
H  -4.926689  -0.561998  -0.110829
H  -4.132495   0.795856  -1.024421
H  -3.936254   0.892769   0.893601
C  -1.449201   0.277418   0.001847
H  -2.882134  -1.030079  -0.451702
H  -2.768396  -1.334337   1.160413
C  -0.115903  -0.721954  -0.039542
H  -1.247276   1.103707   0.980350
H  -1.577990   0.823132  -1.010193
H  -0.245300  -0.979129   0.568762
H   0.610655  -0.311038   0.655083
H   0.508231  -1.993574  -1.287493

