%chk=/home/boittier/MDCM/nms_sampling/butane_geom.xyz.dir/butane_opt_1919.chk
%nproc=8
%mem=16000MB
#p B2PLYPD3/Def2QZVP 

butane_opt

0 1
C  -3.842894   0.220425   0.109817
C  -2.727105  -0.571838  -0.078974
H  -4.914707  -0.536418  -0.110923
H  -3.981627   0.389286  -0.581830
H  -3.820015   1.230797   1.118075
C  -1.413254   0.293473  -0.050544
H  -2.841957  -1.375256  -0.987356
H  -2.527795  -0.887359   0.618400
C  -0.225693  -0.767795   0.142038
H  -1.581736   0.737476   0.582035
H  -1.233054   1.071238  -1.058561
H   0.140996  -1.898048   1.273894
H   0.707281  -0.266975  -0.408131
H  -0.408813  -1.056110  -0.398587
