%chk=/home/boittier/MDCM/nms_sampling/butane_geom.xyz.dir/butane_opt_706.chk
%nproc=8
%mem=16000MB
#p B2PLYPD3/Def2QZVP 

butane_opt

0 1
C  -3.931289   0.312470  -0.076033
C  -2.724005  -0.703952   0.125408
H  -4.753350  -0.117826   0.602733
H  -4.110126   1.351647  -1.191069
H  -4.216152   0.418982   0.330186
C  -1.433628   0.189110   0.129405
H  -2.617012  -1.586643  -0.860063
H  -2.624814  -1.331052   1.057938
C  -0.131999  -0.665543  -0.089499
H  -1.098903   0.833425   1.169370
H  -1.578791   0.925800  -0.771014
H  -0.328898  -0.901117   0.689557
H   0.890845  -0.012778   0.399252
H   0.039171  -1.613306  -1.113756
