%chk=/home/boittier/MDCM/nms_sampling/butane_geom.xyz.dir/butane_opt_246.chk
%nproc=8
%mem=16000MB
#p B2PLYPD3/Def2QZVP 

butane_opt

0 1
C  -3.992029   0.239146  -0.122808
C  -2.762233  -0.544620   0.201812
H  -4.986756  -0.343177  -0.456872
H  -3.644702   0.529744  -0.807215
H  -4.246410   0.851697   0.818673
C  -1.326785   0.242293   0.172894
H  -2.642175  -1.130643  -0.460067
H  -2.946043  -1.389389   1.206783
C  -0.140689  -0.759757  -0.118097
H  -1.455247   0.904478   0.877251
H  -1.333519   1.009564  -0.902699
H   0.410331  -1.315960   0.724719
H   0.653286  -0.186885  -0.001172
H  -0.181722  -1.558758  -1.141857

