%chk=/home/boittier/MDCM/nms_sampling/butane_geom.xyz.dir/butane_opt_2317.chk
%nproc=8
%mem=16000MB
#p B2PLYPD3/Def2QZVP 

butane_opt

0 1
C  -3.943696   0.172123   0.047644
C  -2.736737  -0.534684   0.076697
H  -4.855347  -0.484163  -0.522453
H  -3.788883   0.411125  -0.702746
H  -4.189439   1.455549   1.159686
C  -1.416244   0.258900  -0.108905
H  -2.847456  -1.079886  -0.705533
H  -2.678758  -1.231229   1.126062
C  -0.072158  -0.762845   0.046493
H  -1.331823   0.942589   0.733659
H  -1.782921   0.789120  -0.851733
H  -0.145598  -1.428267   1.007388
H   0.721362  -0.176815   0.297623
H  -0.031533  -1.324809  -0.765146
