%chk=/home/boittier/MDCM/nms_sampling/butane_geom.xyz.dir/butane_opt_1977.chk
%nproc=8
%mem=16000MB
#p B2PLYPD3/Def2QZVP 

butane_opt

0 1
C  -3.878464   0.325751  -0.125471
C  -2.674359  -0.701132   0.087430
H  -4.865208  -0.189416   0.292736
H  -4.040460   1.270135  -1.186698
H  -4.141782   0.913108   0.581459
C  -1.371881   0.082544   0.276740
H  -2.475167  -1.346248  -0.655614
H  -2.936466  -1.191153   0.964220
C  -0.254124  -0.621366  -0.078890
H  -1.061702   0.695818   0.987420
H  -1.620410   0.841623  -0.622049
H   0.143824  -1.427476   0.714784
H   0.704482   0.071238  -0.588333
H  -0.599103  -1.126568  -0.917103
