%chk=/home/boittier/MDCM/nms_sampling/butane_geom.xyz.dir/butane_opt_1770.chk
%nproc=8
%mem=16000MB
#p B2PLYPD3/Def2QZVP 

butane_opt

0 1
C  -4.032756   0.279545   0.185698
C  -2.702450  -0.684429  -0.195905
H  -4.779472  -0.036896   0.534558
H  -4.417166   1.036032  -0.664452
H  -3.673453   1.105708   1.143739
C  -1.345376   0.170421  -0.179521
H  -2.836945  -1.174447  -0.865605
H  -2.679194  -1.389569   0.740700
C  -0.145303  -0.670647   0.199788
H  -1.207453   0.609383   0.528128
H  -1.178431   0.823421  -1.219277
H  -0.429259  -0.977830   0.967621
H   0.711345  -0.071477   0.711126
H   0.160271  -1.508523  -0.562924

