%chk=/home/boittier/MDCM/nms_sampling/butane_geom.xyz.dir/butane_opt_1300.chk
%nproc=8
%mem=16000MB
#p B2PLYPD3/Def2QZVP 

butane_opt

0 1
C  -4.044266   0.362534  -0.154433
C  -2.635855  -0.752181   0.189575
H  -4.856618  -0.310858   0.373759
H  -4.165117   1.562536  -1.354675
H  -4.212994   0.494853   0.390535
C  -1.363056   0.150253   0.195612
H  -2.490549  -1.568075  -0.767620
H  -2.935215  -1.459014   1.159558
C  -0.154600  -0.602075  -0.138237
H  -0.951504   1.214189   1.299522
H  -1.504631   0.411547  -0.319634
H   0.141872  -1.282302   0.747888
H   0.674705  -0.078533  -0.170327
H  -0.365021  -1.322332  -1.042332
