%chk=/home/boittier/MDCM/nms_sampling/butane_geom.xyz.dir/butane_opt_1446.chk
%nproc=8
%mem=16000MB
#p B2PLYPD3/Def2QZVP 

butane_opt

0 1
C  -3.970427   0.171613   0.063478
C  -2.758841  -0.509131   0.030719
H  -4.797409  -0.310850   0.354858
H  -4.010789   0.685998  -0.807438
H  -3.939503   0.992064   0.993066
C  -1.407666   0.258181  -0.148579
H  -2.864581  -1.023228  -0.714742
H  -2.614481  -1.377628   0.874447
C  -0.070886  -0.759821   0.107588
H  -1.721300   0.884429   0.598621
H  -1.221112   0.762622  -0.984959
H  -0.388423  -0.979046   0.838073
H   0.788088  -0.074702   0.746778
H   0.259384  -1.980422  -1.137581

