%chk=/home/boittier/MDCM/nms_sampling/butane_geom.xyz.dir/butane_opt_701.chk
%nproc=8
%mem=16000MB
#p B2PLYPD3/Def2QZVP 

butane_opt

0 1
C  -3.943432   0.252316   0.111067
C  -2.743189  -0.577824  -0.078821
H  -4.868241  -0.426069   0.533665
H  -4.273211   1.069685  -0.911351
H  -3.847894   0.672342   0.829534
C  -1.426580   0.193347  -0.051153
H  -2.729101  -1.608937  -1.110444
H  -2.634058  -0.997351   0.670807
C  -0.097544  -0.697147   0.092543
H  -1.491455   0.773253   0.802450
H  -1.348521   0.890033  -1.027761
H  -0.153608  -1.513093   1.153551
H   0.828096  -0.042602   0.244293
H   0.024331  -1.314016  -0.625284
