%chk=/home/boittier/MDCM/nms_sampling/butane_geom.xyz.dir/butane_opt_1073.chk
%nproc=8
%mem=16000MB
#p B2PLYPD3/Def2QZVP 

butane_opt

0 1
C  -3.986645   0.286839  -0.190101
C  -2.623643  -0.609477   0.272761
H  -4.953598  -0.285238  -0.534950
H  -3.704046   0.703999  -1.074717
H  -4.150528   1.213737   0.858787
C  -1.353869   0.091894   0.207686
H  -2.314087  -0.898309  -0.281298
H  -2.894486  -1.514047   1.509458
C  -0.239704  -0.619474  -0.181994
H  -1.385702   0.705775   1.046299
H  -1.517157   0.528464  -0.564517
H  -0.275142  -1.165986   0.508668
H   0.797483  -0.003223  -0.107067
H  -0.198152  -1.535903  -1.233085
