%chk=/home/boittier/MDCM/nms_sampling/butane_geom.xyz.dir/butane_opt_2707.chk
%nproc=8
%mem=16000MB
#p B2PLYPD3/Def2QZVP 

butane_opt

0 1
C  -4.061205   0.317320  -0.162702
C  -2.723256  -0.645643   0.183409
H  -4.955662  -0.174087  -0.130930
H  -3.850813   1.189813  -1.258598
H  -4.229907   0.935960   0.505225
C  -1.291706   0.065948   0.249120
H  -2.746125  -1.342315  -0.585364
H  -2.589245  -1.503418   1.143727
C  -0.136126  -0.617882  -0.144356
H  -1.142685   1.330377   1.440877
H  -1.424697   0.306332  -0.393659
H   0.180205  -1.558396   0.891557
H   0.707559  -0.083826  -0.963491
H  -0.453978  -0.971198  -0.737506

