%chk=/home/boittier/MDCM/nms_sampling/butane_geom.xyz.dir/butane_opt_994.chk
%nproc=8
%mem=16000MB
#p B2PLYPD3/Def2QZVP 

butane_opt

0 1
C  -3.931970   0.308372   0.251448
C  -2.649861  -0.678875  -0.146595
H  -4.609292   0.015348   0.155057
H  -3.898527   0.576367  -0.576776
H  -4.015648   1.024434   1.175139
C  -1.392919   0.120295  -0.291012
H  -2.928972  -1.191885  -0.987698
H  -2.283988  -1.381908   0.698489
C  -0.216839  -0.654165   0.235427
H  -1.616582   0.730471   0.422887
H  -1.486323   0.930916  -1.207480
H  -0.807550  -0.990042   1.023297
H   0.782945   0.183333   0.915133
H   0.094366  -1.506639  -0.760258
