%chk=/home/boittier/MDCM/nms_sampling/butane_geom.xyz.dir/butane_opt_1689.chk
%nproc=8
%mem=16000MB
#p B2PLYPD3/Def2QZVP 

butane_opt

0 1
C  -3.934545   0.238047  -0.132738
C  -2.715049  -0.623298   0.117682
H  -5.064662  -0.438384   0.531000
H  -4.346600   1.448324  -1.428222
H  -3.739882   0.458334   0.442782
C  -1.410214   0.223007   0.231632
H  -2.705019  -1.051521  -0.643190
H  -2.827218  -1.400118   1.038166
C  -0.119780  -0.681632  -0.132938
H  -1.358663   1.061313   1.116111
H  -1.604253   0.673597  -0.401945
H   0.229534  -1.278342   0.729687
H   0.602739  -0.316967   0.077036
H  -0.030913  -1.530473  -1.086000
