%chk=/home/boittier/MDCM/nms_sampling/butane_geom.xyz.dir/butane_opt_1471.chk
%nproc=8
%mem=16000MB
#p B2PLYPD3/Def2QZVP 

butane_opt

0 1
C  -4.053725   0.308718  -0.085300
C  -2.731214  -0.713073   0.155786
H  -4.693216  -0.078007  -0.579265
H  -3.698819   0.421447  -0.665659
H  -4.334895   1.655710   1.120380
C  -1.390723   0.136629   0.046659
H  -2.421127  -1.173584  -0.409379
H  -2.789076  -1.533934   1.265278
C  -0.086726  -0.625284  -0.054276
H  -1.180196   0.857175   0.872330
H  -1.601616   0.782783  -0.735221
H  -0.074253  -1.411493   0.958773
H   1.113338   0.136604  -0.176243
H  -0.267378  -1.365801  -0.873707
