%chk=/home/boittier/MDCM/nms_sampling/butane_geom.xyz.dir/butane_opt_1482.chk
%nproc=8
%mem=16000MB
#p B2PLYPD3/Def2QZVP 

butane_opt

0 1
C  -3.968862   0.292565  -0.120590
C  -2.737259  -0.695447   0.136930
H  -4.594175  -0.118649   0.694461
H  -4.138416   1.702212  -1.445710
H  -4.095770   0.486118   0.362669
C  -1.375357   0.127966   0.218184
H  -2.707768  -1.467409  -0.893743
H  -2.626572  -1.223976   1.001752
C  -0.174941  -0.661178  -0.122952
H  -1.033782   0.940908   1.238447
H  -1.457895   0.807595  -0.652184
H  -0.059368  -0.933706   0.646570
H   0.717072   0.012279   0.046345
H   0.020698  -1.410070  -0.970120

