%chk=/home/boittier/MDCM/nms_sampling/butane_geom.xyz.dir/butane_opt_288.chk
%nproc=8
%mem=16000MB
#p B2PLYPD3/Def2QZVP 

butane_opt

0 1
C  -3.953200   0.313554   0.099793
C  -2.667318  -0.691696  -0.054342
H  -4.798304  -0.272792   0.091073
H  -3.934122   0.879440  -0.752333
H  -3.950070   0.994494   0.947300
C  -1.394115   0.151530  -0.027621
H  -2.552468  -1.520462  -0.991693
H  -2.623374  -1.106418   0.686120
C  -0.204011  -0.641415   0.086149
H  -1.426930   0.795757   0.723383
H  -1.403271   0.850315  -0.942391
H  -0.231199  -1.538670   1.271884
H   0.673345  -0.024870  -0.222692
H  -0.182810  -1.103886  -0.580674
