%chk=/home/boittier/MDCM/nms_sampling/butane_geom.xyz.dir/butane_opt_1167.chk
%nproc=8
%mem=16000MB
#p B2PLYPD3/Def2QZVP 

butane_opt

0 1
C  -4.081036   0.295088   0.239162
C  -2.672115  -0.703738  -0.137077
H  -4.783627  -0.121350   0.147331
H  -4.256913   0.964117  -0.512605
H  -3.818651   0.888882   1.051220
C  -1.329975   0.161697  -0.228104
H  -2.791199  -1.536238  -0.991972
H  -2.407256  -0.990895   0.476926
C  -0.138285  -0.667797   0.220320
H  -1.289786   0.575419   0.360795
H  -1.474885   1.195510  -1.419078
H  -0.671851  -0.953468   1.042871
H   0.717778  -0.028216   0.823942
H   0.378777  -1.505057  -0.701002

