%chk=/home/boittier/MDCM/nms_sampling/butane_geom.xyz.dir/butane_opt_544.chk
%nproc=8
%mem=16000MB
#p B2PLYPD3/Def2QZVP 

butane_opt

0 1
C  -3.889211   0.212981   0.112942
C  -2.707817  -0.573898  -0.124121
H  -4.775918  -0.364655   0.498930
H  -4.176993   1.062636  -0.827109
H  -3.641835   0.743270   0.895335
C  -1.479379   0.217546  -0.061212
H  -2.766041  -1.327189  -0.951625
H  -2.682594  -1.112993   0.753804
C  -0.137829  -0.707207   0.121454
H  -1.381858   0.914170   0.793133
H  -1.467545   0.825977  -0.899624
H  -0.339907  -1.523587   1.184870
H   0.735789  -0.154225   0.084128
H   0.054486  -1.333419  -0.691492

