%chk=/home/boittier/MDCM/nms_sampling/butane_geom.xyz.dir/butane_opt_1895.chk
%nproc=8
%mem=16000MB
#p B2PLYPD3/Def2QZVP 

butane_opt

0 1
C  -3.981220   0.275596  -0.026931
C  -2.722322  -0.621797   0.026166
H  -4.779105  -0.184638   0.511991
H  -4.377539   1.177757  -1.119155
H  -3.836842   0.729742   0.642844
C  -1.372488   0.138047   0.067171
H  -2.667883  -1.320672  -0.853114
H  -2.664584  -1.366137   0.987491
C  -0.118789  -0.672487   0.017189
H  -1.315491   0.987208   1.030560
H  -1.360401   0.692493  -0.686649
H  -0.250853  -1.211695   0.851393
H   0.795195   0.020977  -0.078697
H  -0.216660  -1.413752  -0.899974
