%chk=/home/boittier/MDCM/nms_sampling/butane_geom.xyz.dir/butane_opt_2281.chk
%nproc=8
%mem=16000MB
#p B2PLYPD3/Def2QZVP 

butane_opt

0 1
C  -3.938590   0.171284   0.070883
C  -2.751853  -0.554073  -0.067888
H  -4.634210  -0.301469   0.122275
H  -3.943569   0.734526  -0.739372
H  -3.988575   0.906549   1.035533
C  -1.418382   0.291518   0.022875
H  -2.899272  -1.207297  -0.947640
H  -2.908684  -0.910230   0.557514
C  -0.098109  -0.779582   0.037422
H  -1.473154   1.093170   0.999845
H  -1.283081   0.800790  -0.882451
H   0.077729  -2.086329   1.387957
H   0.637080  -0.282259  -0.495945
H  -0.102158  -0.765843  -0.273795
