%chk=/home/boittier/MDCM/nms_sampling/butane_geom.xyz.dir/butane_opt_1736.chk
%nproc=8
%mem=16000MB
#p B2PLYPD3/Def2QZVP 

butane_opt

0 1
C  -3.863629   0.357611   0.109597
C  -2.652936  -0.742350  -0.029058
H  -4.840978  -0.210532  -0.507766
H  -4.084662   0.446980  -0.394459
H  -4.007737   1.402445   1.177056
C  -1.410261   0.105441  -0.112586
H  -2.564903  -1.127514  -0.779958
H  -2.828425  -1.406117   1.011693
C  -0.244138  -0.635123   0.087761
H  -1.447973   0.769841   0.805845
H  -1.356105   0.988538  -1.137131
H  -0.481216  -1.249868   1.122362
H   0.795382  -0.010291   0.117723
H  -0.174181  -1.134730  -0.604873
