%chk=/home/boittier/MDCM/nms_sampling/butane_geom.xyz.dir/butane_opt_2291.chk
%nproc=8
%mem=16000MB
#p B2PLYPD3/Def2QZVP 

butane_opt

0 1
C  -3.935842   0.190928   0.106249
C  -2.753452  -0.588558  -0.055422
H  -4.731251  -0.306761   0.067273
H  -3.904259   0.717472  -0.744040
H  -3.857251   1.036633   1.080260
C  -1.420690   0.320526  -0.020697
H  -2.983785  -1.614443  -1.180651
H  -2.619228  -0.909388   0.556534
C  -0.083681  -0.750274   0.085232
H  -1.563572   0.720320   0.607286
H  -1.668324   0.873160  -1.047753
H   0.074723  -1.954097   1.322686
H   0.561703  -0.231321  -0.102341
H  -0.012389  -0.847429  -0.402024
