%chk=/home/boittier/MDCM/nms_sampling/butane_geom.xyz.dir/butane_opt_420.chk
%nproc=8
%mem=16000MB
#p B2PLYPD3/Def2QZVP 

butane_opt

0 1
C  -3.922144   0.229597  -0.154823
C  -2.765908  -0.603363   0.263070
H  -4.754409  -0.464785  -0.443984
H  -3.784526   0.730852  -0.898854
H  -4.491552   0.837363   0.663276
C  -1.424899   0.267448   0.188375
H  -2.629264  -1.324792  -0.593675
H  -2.961966  -1.127730   1.107886
C  -0.070045  -0.710047  -0.150715
H  -1.377113   1.077022   0.975066
H  -1.727884   0.779846  -0.557910
H   0.273999  -1.494587   0.841782
H   0.627328  -0.336123  -0.452920
H   0.015454  -1.381625  -0.932848

