%chk=/home/boittier/MDCM/nms_sampling/butane_geom.xyz.dir/butane_opt_971.chk
%nproc=8
%mem=16000MB
#p B2PLYPD3/Def2QZVP 

butane_opt

0 1
C  -3.970483   0.262297  -0.046988
C  -2.721962  -0.609166   0.150552
H  -4.904925  -0.324565   0.147345
H  -3.765624   1.043931  -1.121700
H  -4.076018   0.610996   0.651742
C  -1.417801   0.214583   0.042087
H  -2.753028  -1.318557  -0.762550
H  -2.822999  -1.310156   1.168920
C  -0.095727  -0.707943  -0.034436
H  -1.402236   1.014076   0.944267
H  -1.490385   0.758719  -0.825335
H  -0.108977  -0.903781   0.615247
H   0.805854  -0.175139   0.345356
H  -0.039403  -1.784843  -1.107019
