%chk=/home/boittier/MDCM/nms_sampling/butane_geom.xyz.dir/butane_opt_487.chk
%nproc=8
%mem=16000MB
#p B2PLYPD3/Def2QZVP 

butane_opt

0 1
C  -3.983928   0.309516   0.001325
C  -2.676416  -0.670244   0.073522
H  -4.741847  -0.239904  -0.051604
H  -4.115209   0.879324  -0.920608
H  -4.043635   0.879751   0.731177
C  -1.365851   0.141078   0.025721
H  -2.649134  -1.188100  -0.627695
H  -2.675431  -1.375804   1.075527
C  -0.197340  -0.644438  -0.000643
H  -1.488288   0.864398   0.832287
H  -1.285771   0.750387  -0.815016
H  -0.130298  -1.094479   0.773898
H   0.763635  -0.023009   0.211846
H  -0.012684  -1.542583  -1.016484
