%chk=/home/boittier/MDCM/nms_sampling/butane_geom.xyz.dir/butane_opt_2435.chk
%nproc=8
%mem=16000MB
#p B2PLYPD3/Def2QZVP 

butane_opt

0 1
C  -3.897069   0.253319  -0.061982
C  -2.716663  -0.637390   0.149055
H  -4.815577  -0.411958   0.298307
H  -3.884606   1.107704  -0.994032
H  -3.955862   0.788091   0.698851
C  -1.440353   0.212922  -0.003834
H  -2.653064  -1.127364  -0.464517
H  -2.622568  -1.148850   1.072391
C  -0.178053  -0.735491  -0.047268
H  -1.413351   1.007625   1.011632
H  -1.552137   0.712193  -0.799901
H  -0.532176  -0.905011   0.622501
H   0.897541   0.158643   0.684489
H   0.273977  -1.791125  -1.191112
