%chk=/home/boittier/MDCM/nms_sampling/butane_geom.xyz.dir/butane_opt_862.chk
%nproc=8
%mem=16000MB
#p B2PLYPD3/Def2QZVP 

butane_opt

0 1
C  -3.903644   0.352104  -0.058683
C  -2.612260  -0.733333   0.196619
H  -4.960403  -0.472695  -0.665676
H  -3.721030   0.609299  -0.830432
H  -4.405174   1.427036   1.026813
C  -1.420922   0.145271   0.032603
H  -2.518730  -1.260782  -0.331980
H  -2.693669  -1.441397   1.162776
C  -0.240816  -0.610053  -0.115354
H  -1.390282   0.797598   0.898254
H  -1.392909   0.608853  -0.735822
H  -0.254470  -1.270282   0.836702
H   0.588670  -0.038247   0.278750
H  -0.148898  -1.282811  -0.823062

