%chk=/home/boittier/MDCM/nms_sampling/butane_geom.xyz.dir/butane_opt_830.chk
%nproc=8
%mem=16000MB
#p B2PLYPD3/Def2QZVP 

butane_opt

0 1
C  -3.990637   0.193816   0.192939
C  -2.761839  -0.605690  -0.163299
H  -4.888395  -0.410086   0.558576
H  -4.179016   1.119309  -0.839831
H  -3.460378   0.669584   0.945440
C  -1.417146   0.315332  -0.123514
H  -2.673273  -1.635881  -1.279284
H  -2.684310  -0.732859   0.451412
C  -0.087316  -0.760441   0.172870
H  -1.500140   0.916414   0.592396
H  -1.345655   0.916785  -1.005948
H   0.129642  -1.587779   1.355873
H   0.510840  -0.405397   0.062014
H   0.173784  -1.063650  -0.325581
