%chk=/home/boittier/MDCM/nms_sampling/butane_geom.xyz.dir/butane_opt_685.chk
%nproc=8
%mem=16000MB
#p B2PLYPD3/Def2QZVP 

butane_opt

0 1
C  -3.912560   0.294214   0.008703
C  -2.699415  -0.649892   0.065776
H  -4.684768  -0.242318   0.009152
H  -4.019513   0.963863  -0.941908
H  -3.962137   0.791607   0.775974
C  -1.408428   0.173538   0.007662
H  -2.630474  -1.221426  -0.677392
H  -2.736317  -1.451934   1.141601
C  -0.204358  -0.683699   0.017310
H  -1.446584   0.915045   0.902892
H  -1.378769   0.789017  -0.947152
H  -0.288249  -0.985324   0.694472
H   0.845421   0.012029   0.332685
H  -0.058036  -1.626116  -1.095395
