%chk=/home/boittier/MDCM/nms_sampling/butane_geom.xyz.dir/butane_opt_529.chk
%nproc=8
%mem=16000MB
#p B2PLYPD3/Def2QZVP 

butane_opt

0 1
C  -3.910551   0.219858   0.084898
C  -2.759047  -0.557305  -0.101448
H  -4.842248  -0.541467   0.599943
H  -4.125971   1.065487  -0.864646
H  -3.788349   0.722982   0.910778
C  -1.425150   0.312529  -0.030899
H  -2.886801  -1.445980  -1.083640
H  -2.862884  -1.206020   0.892569
C  -0.122255  -0.792248   0.121291
H  -1.275250   0.664788   0.747065
H  -1.480349   1.072562  -1.017748
H  -0.129566  -1.310061   0.971605
H   0.905041  -0.151727   0.231421
H   0.091741  -1.512446  -0.831881
