%chk=/home/boittier/MDCM/nms_sampling/butane_geom.xyz.dir/butane_opt_1110.chk
%nproc=8
%mem=16000MB
#p B2PLYPD3/Def2QZVP 

butane_opt

0 1
C  -3.916034   0.348671  -0.133240
C  -2.647722  -0.693060   0.155819
H  -4.703675  -0.324511   0.206683
H  -3.953527   1.105494  -1.119287
H  -4.172957   0.846153   0.495268
C  -1.348125   0.126638   0.215364
H  -2.599080  -1.361962  -0.748309
H  -2.777201  -1.316165   0.994475
C  -0.249176  -0.644730  -0.078798
H  -1.556412   0.888722   1.121012
H  -1.303519   0.460383  -0.629670
H   0.057548  -1.265582   0.768704
H   0.728202   0.020503  -0.639879
H  -0.823328  -1.122014  -0.919840
