%chk=/home/boittier/MDCM/nms_sampling/butane_geom.xyz.dir/butane_opt_663.chk
%nproc=8
%mem=16000MB
#p B2PLYPD3/Def2QZVP 

butane_opt

0 1
C  -3.917952   0.344857  -0.116535
C  -2.640673  -0.735673   0.139535
H  -4.951860  -0.296557   0.246286
H  -4.010017   1.166530  -1.221483
H  -3.914111   0.728333   0.576427
C  -1.392637   0.143056   0.134602
H  -2.396134  -0.985476  -0.265194
H  -2.731435  -1.531921   1.262913
C  -0.279377  -0.615005  -0.109001
H  -1.168132   0.911701   1.190797
H  -1.704456   0.579889  -0.720606
H  -0.155220  -0.935515   0.504091
H   0.783739   0.003591   0.528400
H  -0.075471  -1.732998  -1.274239
