%chk=/home/boittier/MDCM/nms_sampling/butane_geom.xyz.dir/butane_opt_1653.chk
%nproc=8
%mem=16000MB
#p B2PLYPD3/Def2QZVP 

butane_opt

0 1
C  -3.930991   0.214056  -0.159246
C  -2.765472  -0.510668   0.289231
H  -4.959138  -0.322292  -0.691727
H  -3.581509   0.482970  -0.979874
H  -4.354096   0.970465   0.671857
C  -1.375745   0.224871   0.194045
H  -2.740617  -1.014758  -0.446578
H  -3.001871  -1.483507   1.424812
C  -0.101394  -0.760929  -0.130588
H  -1.415238   0.776192   0.999237
H  -1.506862   1.146024  -0.783276
H   0.069224  -1.033653   0.454759
H   0.775363  -0.153901  -0.171626
H  -0.202221  -1.896631  -1.401598
