%chk=/home/boittier/MDCM/nms_sampling/butane_geom.xyz.dir/butane_opt_214.chk
%nproc=8
%mem=16000MB
#p B2PLYPD3/Def2QZVP 

butane_opt

0 1
C  -3.937018   0.227072  -0.085622
C  -2.740871  -0.569068   0.141762
H  -4.939219  -0.431412   0.238997
H  -4.052482   0.873688  -1.022962
H  -4.013806   0.831893   0.775903
C  -1.443170   0.222719   0.061734
H  -2.702013  -1.101484  -0.576700
H  -2.854011  -1.333329   1.131366
C  -0.068906  -0.734773  -0.040970
H  -1.355930   0.894697   0.840725
H  -1.482445   0.805343  -0.770348
H  -0.114536  -0.892475   0.580109
H   0.719897  -0.169683   0.375371
H   0.088756  -1.733845  -1.085883
