%chk=/home/boittier/MDCM/nms_sampling/butane_geom.xyz.dir/butane_opt_229.chk
%nproc=8
%mem=16000MB
#p B2PLYPD3/Def2QZVP 

butane_opt

0 1
C  -3.971494   0.274673   0.075377
C  -2.704346  -0.617327  -0.067380
H  -4.850516  -0.404647  -0.116130
H  -3.984018   0.602074  -0.564579
H  -3.935179   1.128744   1.100035
C  -1.421035   0.195904  -0.026494
H  -2.914347  -1.273003  -0.919411
H  -2.686642  -1.260252   0.859856
C  -0.086927  -0.699585   0.095017
H  -1.553214   0.836066   0.674127
H  -1.347144   0.796915  -0.887566
H   0.031961  -1.645254   1.219883
H   0.773141  -0.135782  -0.280537
H  -0.345695  -0.958953  -0.510402
