%chk=/home/boittier/MDCM/nms_sampling/butane_geom.xyz.dir/butane_opt_2744.chk
%nproc=8
%mem=16000MB
#p B2PLYPD3/Def2QZVP 

butane_opt

0 1
C  -3.932935   0.190917  -0.113803
C  -2.697144  -0.505108   0.190590
H  -4.961614  -0.553952   0.159331
H  -3.533488   1.403290  -1.481565
H  -3.857052   0.564516   0.562490
C  -1.488183   0.172788   0.188241
H  -2.587750  -1.109373  -0.571059
H  -2.916616  -1.265663   1.297151
C  -0.136954  -0.709709  -0.123923
H  -1.338384   0.889105   1.035178
H  -1.388906   0.847241  -0.787791
H   0.159961  -0.824378   0.373329
H   0.736940  -0.238763   0.339069
H  -0.259321  -1.977977  -1.251072
