14
	Energy:      -5.0759605
C         -3.92702        0.26476        0.01706
C         -2.69540       -0.62635        0.03953
H         -4.83606       -0.34442        0.03859
H         -3.95072        0.87845       -0.88912
H         -3.94449        0.93191        0.88479
C         -1.40885        0.19632        0.01103
H         -2.72470       -1.30223       -0.82308
H         -2.71896       -1.24990        0.94086
C         -0.17724       -0.69483        0.03187
H         -1.37909        0.87132        0.87432
H         -1.38574        0.82080       -0.88967
H         -0.15354       -1.31030        0.93684
H          0.73181       -0.08562        0.01150
H         -0.15977       -1.36027       -0.83717
