%chk=acrolein_opt.chk
%nproc=8
%mem=500MB
#p B2PLYPD3/6-31G** opt freq=NoRaman 

acrolein_opt

0 1
C         -5.01401       -1.36892        0.89287
O         -3.90623       -0.90292        0.65876
C         -5.20148       -2.81095        1.14619
C         -6.41592       -3.30951        1.40097
H         -4.31151       -3.42840        1.11354
H         -7.30688       -2.69021        1.43347
H         -6.54262       -4.37225        1.58598
H         -5.92127       -0.74330        0.92671



