%chk=/home/boittier/MDCM/nms_sampling/acrolein_geom.xyz.dir/acrolein_1851.chk
%nproc=8
%mem=16000MB
#p B2PLYPD3/Def2QZVP 

acrolein

0 1
C  -5.000117  -1.408640   0.925061
O  -3.961274  -0.836300   0.621547
C  -5.175399  -2.860897   1.204606
C  -6.401253  -3.293008   1.358734
H  -4.162856  -3.538387   1.123970
H  -7.417569  -2.647067   1.484760
H  -6.572445  -4.230761   1.450524
H  -5.846210  -0.799310   0.985584

