%chk=/home/boittier/MDCM/nms_sampling/acrolein_geom.xyz.dir/acrolein_1423.chk
%nproc=8
%mem=16000MB
#p B2PLYPD3/Def2QZVP 

acrolein

0 1
C  -5.001497  -1.373968   0.875676
O  -3.919062  -0.881571   0.675032
C  -5.212054  -2.794433   1.132174
C  -6.411707  -3.322618   1.405937
H  -4.284443  -3.440539   1.049640
H  -7.223739  -2.674605   1.411913
H  -6.592175  -4.417734   1.712890
H  -5.975593  -0.785160   0.925756

