%chk=/home/boittier/MDCM/nms_sampling/acrolein_geom.xyz.dir/acrolein_2226.chk
%nproc=8
%mem=16000MB
#p B2PLYPD3/Def2QZVP 

acrolein

0 1
C  -5.039477  -1.353105   0.945906
O  -3.956766  -0.889267   0.595954
C  -5.181450  -2.816397   1.212305
C  -6.351828  -3.311291   1.330258
H  -4.377950  -3.382629   1.286633
H  -7.193615  -2.677619   1.401235
H  -6.589709  -4.436650   1.521678
H  -5.896925  -0.794207   1.221972

