%chk=/home/boittier/MDCM/nms_sampling/acrolein_geom.xyz.dir/acrolein_159.chk
%nproc=8
%mem=16000MB
#p B2PLYPD3/Def2QZVP 

acrolein

0 1
C  -4.997347  -1.389086   0.892504
O  -3.929393  -0.863639   0.653494
C  -5.198498  -2.826611   1.157984
C  -6.419445  -3.305808   1.390767
H  -4.274948  -3.461689   1.129356
H  -7.288228  -2.650965   1.472693
H  -6.563496  -4.351166   1.549910
H  -5.907637  -0.777492   0.950029

