%chk=/home/boittier/MDCM/nms_sampling/acrolein_geom.xyz.dir/acrolein_2633.chk
%nproc=8
%mem=16000MB
#p B2PLYPD3/Def2QZVP 

acrolein

0 1
C  -4.995428  -1.431546   0.940272
O  -3.954367  -0.836227   0.594118
C  -5.187170  -2.849586   1.229133
C  -6.413284  -3.284401   1.353766
H  -4.280501  -3.421699   1.236940
H  -7.163796  -2.579392   1.387824
H  -6.552415  -4.278587   1.274462
H  -5.850244  -0.869954   1.154372

