%chk=/home/boittier/MDCM/nms_sampling/acrolein_geom.xyz.dir/acrolein_945.chk
%nproc=8
%mem=16000MB
#p B2PLYPD3/Def2QZVP 

acrolein

0 1
C  -5.004185  -1.406992   0.886910
O  -3.942800  -0.852505   0.677380
C  -5.176813  -2.837426   1.103918
C  -6.405123  -3.288187   1.428269
H  -4.310164  -3.432288   1.096069
H  -7.278159  -2.655664   1.338659
H  -6.635467  -4.404615   1.698602
H  -5.931775  -0.790188   0.869670

