%chk=/home/boittier/MDCM/nms_sampling/acrolein_geom.xyz.dir/acrolein_557.chk
%nproc=8
%mem=16000MB
#p B2PLYPD3/Def2QZVP 

acrolein

0 1
C  -5.007375  -1.391910   0.897606
O  -3.941615  -0.862000   0.649272
C  -5.192621  -2.826671   1.151118
C  -6.397694  -3.307484   1.395601
H  -4.306376  -3.432372   1.157056
H  -7.278045  -2.650268   1.364508
H  -6.550866  -4.326418   1.582883
H  -5.902797  -0.801420   1.029147
