%chk=/home/boittier/MDCM/nms_sampling/acrolein_geom.xyz.dir/acrolein_1447.chk
%nproc=8
%mem=16000MB
#p B2PLYPD3/Def2QZVP 

acrolein

0 1
C  -5.023859  -1.369337   0.912565
O  -3.942134  -0.883431   0.631868
C  -5.183052  -2.795402   1.185037
C  -6.392941  -3.322892   1.381595
H  -4.260059  -3.393710   1.145830
H  -7.208061  -2.676375   1.437666
H  -6.587767  -4.471406   1.421283
H  -5.935281  -0.784793   0.986753

