%chk=/home/boittier/MDCM/nms_sampling/acrolein_geom.xyz.dir/acrolein_653.chk
%nproc=8
%mem=16000MB
#p B2PLYPD3/Def2QZVP 

acrolein

0 1
C  -5.001626  -1.386501   0.888153
O  -3.933264  -0.864748   0.654862
C  -5.185857  -2.829554   1.162392
C  -6.410415  -3.308550   1.397761
H  -4.355956  -3.426069   1.093731
H  -7.313275  -2.639384   1.439510
H  -6.569076  -4.338846   1.515578
H  -5.929589  -0.770916   0.952195

