%chk=/home/boittier/MDCM/nms_sampling/acrolein_geom.xyz.dir/acrolein_382.chk
%nproc=8
%mem=16000MB
#p B2PLYPD3/Def2QZVP 

acrolein

0 1
C  -5.006931  -1.386655   0.884785
O  -3.939227  -0.872555   0.670035
C  -5.201515  -2.802163   1.119743
C  -6.396980  -3.316380   1.416010
H  -4.275162  -3.440991   1.140041
H  -7.214392  -2.662030   1.399747
H  -6.558579  -4.392377   1.635481
H  -5.936436  -0.796233   0.916888

