%chk=/home/boittier/MDCM/nms_sampling/acrolein_geom.xyz.dir/acrolein_2348.chk
%nproc=8
%mem=16000MB
#p B2PLYPD3/Def2QZVP 

acrolein

0 1
C  -5.022262  -1.361450   0.861427
O  -3.905422  -0.891661   0.694250
C  -5.215770  -2.795500   1.074381
C  -6.400046  -3.321836   1.422739
H  -4.305922  -3.396172   1.236581
H  -7.092070  -2.679033   1.487018
H  -6.608515  -4.507343   1.797815
H  -6.111656  -0.696503   0.912527

