%chk=/home/boittier/MDCM/nms_sampling/acrolein_geom.xyz.dir/acrolein_643.chk
%nproc=8
%mem=16000MB
#p B2PLYPD3/Def2QZVP 

acrolein

0 1
C  -5.012961  -1.375961   0.902907
O  -3.937346  -0.876873   0.651414
C  -5.199755  -2.806209   1.143494
C  -6.395405  -3.319241   1.391388
H  -4.271519  -3.416707   1.177513
H  -7.204726  -2.673963   1.444541
H  -6.557043  -4.386750   1.600022
H  -5.944045  -0.789725   0.952296

