%chk=/home/boittier/MDCM/nms_sampling/acrolein_geom.xyz.dir/acrolein_1253.chk
%nproc=8
%mem=16000MB
#p B2PLYPD3/Def2QZVP 

acrolein

0 1
C  -5.004175  -1.387097   0.879995
O  -3.946509  -0.859989   0.676185
C  -5.176385  -2.834155   1.133730
C  -6.404534  -3.302737   1.407789
H  -4.285784  -3.464073   1.053879
H  -7.297958  -2.628291   1.538878
H  -6.592442  -4.367546   1.610000
H  -5.932922  -0.804260   0.784472

