%chk=/home/boittier/MDCM/nms_sampling/acrolein_geom.xyz.dir/acrolein_2417.chk
%nproc=8
%mem=16000MB
#p B2PLYPD3/Def2QZVP 

acrolein

0 1
C  -5.031034  -1.383284   0.833067
O  -3.940203  -0.886484   0.721255
C  -5.187098  -2.761458   1.038349
C  -6.364010  -3.337331   1.479369
H  -4.290716  -3.328718   1.179348
H  -7.233404  -2.722588   1.363668
H  -6.675921  -4.518277   1.725477
H  -6.032626  -0.792346   0.844456
