%chk=/home/boittier/MDCM/nms_sampling/acrolein_geom.xyz.dir/acrolein_1892.chk
%nproc=8
%mem=16000MB
#p B2PLYPD3/Def2QZVP 

acrolein

0 1
C  -4.999344  -1.378801   0.818421
O  -3.923112  -0.877398   0.720913
C  -5.192891  -2.802421   1.061005
C  -6.412281  -3.319870   1.473793
H  -4.412748  -3.415713   1.165462
H  -7.255738  -2.610198   1.456203
H  -6.610452  -4.401359   1.611249
H  -5.963046  -0.816975   0.850528

