%chk=/home/boittier/MDCM/nms_sampling/acrolein_geom.xyz.dir/acrolein_2111.chk
%nproc=8
%mem=16000MB
#p B2PLYPD3/Def2QZVP 

acrolein

0 1
C  -5.031967  -1.335356   0.794492
O  -3.916122  -0.908510   0.725564
C  -5.205099  -2.797731   1.114047
C  -6.370182  -3.336262   1.466130
H  -4.511733  -3.353757   0.955665
H  -7.257994  -2.634167   1.562840
H  -6.567078  -4.428651   1.469750
H  -5.960424  -0.683674   0.778825
