%chk=/home/boittier/MDCM/nms_sampling/acrolein_geom.xyz.dir/acrolein_2423.chk
%nproc=8
%mem=16000MB
#p B2PLYPD3/Def2QZVP 

acrolein

0 1
C  -5.005723  -1.424323   0.943840
O  -3.958474  -0.841436   0.609090
C  -5.167152  -2.835994   1.232448
C  -6.424475  -3.291312   1.331901
H  -4.161796  -3.436693   1.010557
H  -7.338899  -2.640451   1.440892
H  -6.535469  -4.376706   1.562828
H  -5.751076  -0.805468   1.004904
