%chk=/home/boittier/MDCM/nms_sampling/acrolein_geom.xyz.dir/acrolein_877.chk
%nproc=8
%mem=16000MB
#p B2PLYPD3/Def2QZVP 

acrolein

0 1
C  -5.012033  -1.371697   0.900346
O  -3.933748  -0.874943   0.644630
C  -5.187441  -2.822836   1.159287
C  -6.400558  -3.312495   1.391395
H  -4.335960  -3.426243   1.159286
H  -7.254441  -2.669856   1.367798
H  -6.586673  -4.369437   1.556217
H  -5.950819  -0.754558   1.042895

