%chk=/home/boittier/MDCM/nms_sampling/acrolein_geom.xyz.dir/acrolein_726.chk
%nproc=8
%mem=16000MB
#p B2PLYPD3/Def2QZVP 

acrolein

0 1
C  -5.010693  -1.376611   0.911438
O  -3.939500  -0.875850   0.644316
C  -5.186435  -2.804407   1.145769
C  -6.396515  -3.319015   1.386328
H  -4.283264  -3.430719   1.201457
H  -7.256437  -2.674768   1.407830
H  -6.615107  -4.412129   1.613579
H  -5.962475  -0.785239   0.994231

