%chk=/home/boittier/MDCM/nms_sampling/acrolein_geom.xyz.dir/acrolein_1395.chk
%nproc=8
%mem=16000MB
#p B2PLYPD3/Def2QZVP 

acrolein

0 1
C  -4.992396  -1.413946   0.885849
O  -3.949073  -0.853137   0.679836
C  -5.177995  -2.828367   1.099268
C  -6.407856  -3.295143   1.415514
H  -4.339369  -3.419637   1.129546
H  -7.273201  -2.627118   1.421758
H  -6.605527  -4.382172   1.766115
H  -5.930157  -0.781400   0.859459

