%chk=/home/boittier/MDCM/nms_sampling/acrolein_geom.xyz.dir/acrolein_1748.chk
%nproc=8
%mem=16000MB
#p B2PLYPD3/Def2QZVP 

acrolein

0 1
C  -5.015459  -1.372258   0.848973
O  -3.934052  -0.882253   0.693585
C  -5.195234  -2.807188   1.112378
C  -6.388076  -3.315170   1.440940
H  -4.407992  -3.438039   1.089635
H  -7.249037  -2.647820   1.496257
H  -6.555329  -4.406904   1.528118
H  -5.920887  -0.743277   0.823201

