%chk=/home/boittier/MDCM/nms_sampling/acrolein_geom.xyz.dir/acrolein_2413.chk
%nproc=8
%mem=16000MB
#p B2PLYPD3/Def2QZVP 

acrolein

0 1
C  -5.020084  -1.332609   0.842508
O  -3.921367  -0.898577   0.720229
C  -5.216534  -2.822325   1.090917
C  -6.388380  -3.319470   1.450102
H  -4.338943  -3.424549   0.912712
H  -7.169706  -2.722639   1.570021
H  -6.520034  -4.373458   1.693986
H  -5.995260  -0.695733   0.583660

