%chk=/home/boittier/MDCM/nms_sampling/acrolein_geom.xyz.dir/acrolein_1397.chk
%nproc=8
%mem=16000MB
#p B2PLYPD3/Def2QZVP 

acrolein

0 1
C  -5.000709  -1.395207   0.925163
O  -3.949179  -0.858846   0.627264
C  -5.190150  -2.830198   1.183800
C  -6.398077  -3.306072   1.363363
H  -4.339852  -3.472123   1.120426
H  -7.280826  -2.687206   1.368968
H  -6.504175  -4.254356   1.610909
H  -5.902961  -0.777156   1.051130
