%chk=/home/boittier/MDCM/nms_sampling/acrolein_geom.xyz.dir/acrolein_2408.chk
%nproc=8
%mem=16000MB
#p B2PLYPD3/Def2QZVP 

acrolein

0 1
C  -4.985262  -1.435792   0.936007
O  -3.965236  -0.839045   0.624269
C  -5.161164  -2.835693   1.196657
C  -6.403135  -3.282983   1.356591
H  -4.363294  -3.488961   1.029107
H  -7.320029  -2.611603   1.375120
H  -6.654582  -4.356061   1.627720
H  -5.898706  -0.776157   0.976287
