%chk=/home/boittier/MDCM/nms_sampling/acrolein_geom.xyz.dir/acrolein_418.chk
%nproc=8
%mem=16000MB
#p B2PLYPD3/Def2QZVP 

acrolein

0 1
C  -5.004411  -1.387038   0.902213
O  -3.939276  -0.862632   0.646486
C  -5.188980  -2.830095   1.155606
C  -6.400233  -3.306449   1.386021
H  -4.313392  -3.464125   1.155381
H  -7.263660  -2.655071   1.392184
H  -6.571315  -4.333512   1.610562
H  -5.975596  -0.769857   1.024284
