%chk=/home/boittier/MDCM/nms_sampling/acrolein_geom.xyz.dir/acrolein_342.chk
%nproc=8
%mem=16000MB
#p B2PLYPD3/Def2QZVP 

acrolein

0 1
C  -5.003014  -1.394840   0.879201
O  -3.939586  -0.859571   0.670663
C  -5.189159  -2.828764   1.145577
C  -6.411922  -3.302423   1.404619
H  -4.279055  -3.462655   1.035988
H  -7.221032  -2.636776   1.471507
H  -6.575585  -4.346431   1.609344
H  -5.917489  -0.800546   0.866116

