%chk=/home/boittier/MDCM/nms_sampling/acrolein_geom.xyz.dir/acrolein_2065.chk
%nproc=8
%mem=16000MB
#p B2PLYPD3/Def2QZVP 

acrolein

0 1
C  -4.976266  -1.388713   0.974825
O  -3.919347  -0.853264   0.585992
C  -5.219959  -2.867341   1.236611
C  -6.434482  -3.277300   1.360022
H  -4.273920  -3.534984   1.087778
H  -7.214255  -2.627310   1.311120
H  -6.640377  -4.265829   1.264622
H  -5.886632  -0.833846   0.969912
