%chk=/home/boittier/MDCM/nms_sampling/acrolein_geom.xyz.dir/acrolein_2667.chk
%nproc=8
%mem=16000MB
#p B2PLYPD3/Def2QZVP 

acrolein

0 1
C  -5.018251  -1.371200   0.925654
O  -3.956184  -0.885919   0.611282
C  -5.192137  -2.777837   1.197501
C  -6.369540  -3.338981   1.364048
H  -4.324638  -3.415400   1.215747
H  -7.266200  -2.713817   1.266333
H  -6.483680  -4.366189   1.500321
H  -5.939857  -0.786058   1.234638
