%chk=/home/boittier/MDCM/nms_sampling/acrolein_geom.xyz.dir/acrolein_622.chk
%nproc=8
%mem=16000MB
#p B2PLYPD3/Def2QZVP 

acrolein

0 1
C  -5.005677  -1.389417   0.890678
O  -3.936555  -0.857773   0.664539
C  -5.186136  -2.832817   1.141647
C  -6.408823  -3.308008   1.413467
H  -4.287019  -3.472160   1.065001
H  -7.303674  -2.647693   1.427169
H  -6.532648  -4.322986   1.544780
H  -5.967048  -0.782035   0.848681

