%chk=/home/boittier/MDCM/nms_sampling/acrolein_geom.xyz.dir/acrolein_451.chk
%nproc=8
%mem=16000MB
#p B2PLYPD3/Def2QZVP 

acrolein

0 1
C  -5.007432  -1.386761   0.906617
O  -3.938061  -0.871478   0.641556
C  -5.195878  -2.804361   1.159935
C  -6.397917  -3.316128   1.380499
H  -4.270764  -3.446628   1.174064
H  -7.229030  -2.682465   1.391678
H  -6.589513  -4.389626   1.606512
H  -5.965775  -0.768746   1.047531

