%chk=/home/boittier/MDCM/nms_sampling/acrolein_geom.xyz.dir/acrolein_973.chk
%nproc=8
%mem=16000MB
#p B2PLYPD3/Def2QZVP 

acrolein

0 1
C  -4.997082  -1.410708   0.836772
O  -3.937844  -0.855952   0.697424
C  -5.187304  -2.816389   1.123623
C  -6.412169  -3.300127   1.432838
H  -4.344115  -3.467656   1.048871
H  -7.214241  -2.677041   1.531692
H  -6.577633  -4.359373   1.553863
H  -5.979217  -0.780103   0.849818
