%chk=/home/boittier/MDCM/nms_sampling/acrolein_geom.xyz.dir/acrolein_497.chk
%nproc=8
%mem=16000MB
#p B2PLYPD3/Def2QZVP 

acrolein

0 1
C  -5.004507  -1.382452   0.902055
O  -3.926222  -0.870069   0.645091
C  -5.199815  -2.812611   1.173109
C  -6.405934  -3.318752   1.389147
H  -4.321867  -3.417647   1.079477
H  -7.290521  -2.665873   1.412784
H  -6.545838  -4.356311   1.516866
H  -5.980519  -0.786686   0.958971

