%chk=/home/boittier/MDCM/nms_sampling/acrolein_geom.xyz.dir/acrolein_983.chk
%nproc=8
%mem=16000MB
#p B2PLYPD3/Def2QZVP 

acrolein

0 1
C  -4.997361  -1.395261   0.909283
O  -3.931753  -0.855969   0.634077
C  -5.184495  -2.845925   1.164365
C  -6.427491  -3.292403   1.376949
H  -4.305014  -3.486312   1.219556
H  -7.287797  -2.604076   1.349089
H  -6.604213  -4.346767   1.591371
H  -5.862105  -0.771821   1.131120
