%chk=/home/boittier/MDCM/nms_sampling/acrolein_geom.xyz.dir/acrolein_2586.chk
%nproc=8
%mem=16000MB
#p B2PLYPD3/Def2QZVP 

acrolein

0 1
C  -5.015147  -1.365875   0.910104
O  -3.951482  -0.896343   0.634625
C  -5.190562  -2.774605   1.159991
C  -6.383469  -3.317549   1.380248
H  -4.372571  -3.444996   1.212610
H  -7.124949  -2.711739   1.298065
H  -6.599684  -4.488781   1.623365
H  -5.866892  -0.808468   1.154425
