%chk=/home/boittier/MDCM/nms_sampling/acrolein_geom.xyz.dir/acrolein_1393.chk
%nproc=8
%mem=16000MB
#p B2PLYPD3/Def2QZVP 

acrolein

0 1
C  -5.008199  -1.374151   0.932039
O  -3.920761  -0.878279   0.626239
C  -5.212237  -2.801619   1.175457
C  -6.411683  -3.318735   1.365916
H  -4.256318  -3.461364   1.121834
H  -7.229643  -2.659670   1.306544
H  -6.568363  -4.404569   1.664007
H  -5.913426  -0.805194   1.065986
