%chk=/home/boittier/MDCM/nms_sampling/acrolein_geom.xyz.dir/acrolein_1637.chk
%nproc=8
%mem=16000MB
#p B2PLYPD3/Def2QZVP 

acrolein

0 1
C  -5.010466  -1.380731   0.909421
O  -3.936562  -0.875480   0.648352
C  -5.191914  -2.808348   1.148126
C  -6.395751  -3.310166   1.381054
H  -4.311483  -3.451477   1.131599
H  -7.183400  -2.662467   1.383406
H  -6.596764  -4.447234   1.708913
H  -6.013201  -0.737689   0.995925
