%chk=/home/boittier/MDCM/nms_sampling/acrolein_geom.xyz.dir/acrolein_1413.chk
%nproc=8
%mem=16000MB
#p B2PLYPD3/Def2QZVP 

acrolein

0 1
C  -5.010805  -1.392233   0.930866
O  -3.950659  -0.862991   0.630403
C  -5.181290  -2.816447   1.186144
C  -6.393207  -3.317635   1.367900
H  -4.313527  -3.463631   1.074801
H  -7.315782  -2.669060   1.471605
H  -6.541683  -4.281568   1.527990
H  -5.873371  -0.781643   0.881903
