%chk=/home/boittier/MDCM/nms_sampling/acrolein_geom.xyz.dir/acrolein_1503.chk
%nproc=8
%mem=16000MB
#p B2PLYPD3/Def2QZVP 

acrolein

0 1
C  -5.001333  -1.400079   0.850348
O  -3.948784  -0.856628   0.691279
C  -5.173325  -2.827259   1.119182
C  -6.411400  -3.306568   1.416971
H  -4.226709  -3.420037   1.096256
H  -7.312854  -2.624904   1.552668
H  -6.601997  -4.393823   1.642537
H  -5.923461  -0.775473   0.865203
