%chk=/home/boittier/MDCM/nms_sampling/acrolein_geom.xyz.dir/acrolein_689.chk
%nproc=8
%mem=16000MB
#p B2PLYPD3/Def2QZVP 

acrolein

0 1
C  -5.006723  -1.371828   0.876397
O  -3.929853  -0.880800   0.673804
C  -5.196171  -2.806259   1.123286
C  -6.409325  -3.316336   1.408726
H  -4.293230  -3.416666   1.145153
H  -7.233882  -2.688223   1.481488
H  -6.596983  -4.415722   1.639653
H  -5.927541  -0.766724   0.905401
