%chk=/home/boittier/MDCM/nms_sampling/acrolein_geom.xyz.dir/acrolein_2541.chk
%nproc=8
%mem=16000MB
#p B2PLYPD3/Def2QZVP 

acrolein

0 1
C  -5.003972  -1.422399   0.953719
O  -3.959614  -0.843212   0.604546
C  -5.183863  -2.849007   1.235373
C  -6.394338  -3.295667   1.334882
H  -4.347778  -3.416727   1.019765
H  -7.271317  -2.587600   1.480454
H  -6.502116  -4.224253   1.474745
H  -5.805040  -0.785089   0.927988

