%chk=/home/boittier/MDCM/nms_sampling/acrolein_geom.xyz.dir/acrolein_885.chk
%nproc=8
%mem=16000MB
#p B2PLYPD3/Def2QZVP 

acrolein

0 1
C  -4.998989  -1.385842   0.892004
O  -3.936670  -0.868334   0.660426
C  -5.193053  -2.826535   1.132058
C  -6.409974  -3.306218   1.406865
H  -4.325558  -3.428036   1.153905
H  -7.278010  -2.636968   1.382684
H  -6.580396  -4.355181   1.616718
H  -5.880301  -0.773162   0.965162

