%chk=/home/boittier/MDCM/nms_sampling/acrolein_geom.xyz.dir/acrolein_551.chk
%nproc=8
%mem=16000MB
#p B2PLYPD3/Def2QZVP 

acrolein

0 1
C  -5.003279  -1.387960   0.877615
O  -3.935564  -0.874398   0.669065
C  -5.197078  -2.797354   1.129558
C  -6.402327  -3.321181   1.409225
H  -4.296791  -3.425145   1.137649
H  -7.220560  -2.672212   1.410724
H  -6.596779  -4.385156   1.635802
H  -5.960679  -0.765950   0.969696
