%chk=/home/boittier/MDCM/nms_sampling/acrolein_geom.xyz.dir/acrolein_1965.chk
%nproc=8
%mem=16000MB
#p B2PLYPD3/Def2QZVP 

acrolein

0 1
C  -4.990107  -1.371645   0.972637
O  -3.932649  -0.854063   0.605201
C  -5.180121  -2.870877   1.171135
C  -6.436731  -3.295743   1.369454
H  -4.269498  -3.554981   1.210742
H  -7.507018  -2.677088   1.278026
H  -6.521353  -4.215996   1.542323
H  -5.807315  -0.752742   0.984348
