%chk=/home/boittier/MDCM/nms_sampling/acrolein_geom.xyz.dir/acrolein_1332.chk
%nproc=8
%mem=16000MB
#p B2PLYPD3/Def2QZVP 

acrolein

0 1
C  -5.001117  -1.388342   0.851263
O  -3.922516  -0.876257   0.689652
C  -5.218091  -2.798950   1.109307
C  -6.411742  -3.317306   1.432986
H  -4.273309  -3.429492   1.102552
H  -7.228979  -2.663829   1.381545
H  -6.563678  -4.392082   1.660008
H  -5.889261  -0.759646   0.960423
