%chk=/home/boittier/MDCM/nms_sampling/acrolein_geom.xyz.dir/acrolein_903.chk
%nproc=8
%mem=16000MB
#p B2PLYPD3/Def2QZVP 

acrolein

0 1
C  -5.009660  -1.370765   0.944396
O  -3.939134  -0.883620   0.618865
C  -5.192227  -2.801626   1.177887
C  -6.398543  -3.319129   1.360459
H  -4.306636  -3.402647   1.178041
H  -7.173059  -2.667218   1.389925
H  -6.611460  -4.421374   1.586047
H  -5.939902  -0.779233   1.002639

