%chk=/home/boittier/MDCM/nms_sampling/acrolein_geom.xyz.dir/acrolein_1058.chk
%nproc=8
%mem=16000MB
#p B2PLYPD3/Def2QZVP 

acrolein

0 1
C  -5.017843  -1.351534   0.877267
O  -3.921078  -0.889984   0.676088
C  -5.191853  -2.809853   1.134299
C  -6.401533  -3.321941   1.428798
H  -4.368767  -3.420819   1.030535
H  -7.242881  -2.710857   1.450684
H  -6.586790  -4.407221   1.503450
H  -5.996869  -0.715968   0.786248

