%chk=/home/boittier/MDCM/nms_sampling/acrolein_geom.xyz.dir/acrolein_2590.chk
%nproc=8
%mem=16000MB
#p B2PLYPD3/Def2QZVP 

acrolein

0 1
C  -5.005572  -1.361834   0.832196
O  -3.906736  -0.892500   0.723101
C  -5.210657  -2.775420   1.073403
C  -6.421065  -3.334162   1.436903
H  -4.308799  -3.427644   0.985759
H  -7.135972  -2.747677   1.457285
H  -6.615958  -4.424163   1.938923
H  -6.064565  -0.774877   0.813645
