%chk=/home/boittier/MDCM/nms_sampling/acrolein_geom.xyz.dir/acrolein_1598.chk
%nproc=8
%mem=16000MB
#p B2PLYPD3/Def2QZVP 

acrolein

0 1
C  -4.990150  -1.400451   0.940138
O  -3.922839  -0.850007   0.620831
C  -5.199656  -2.846563   1.192195
C  -6.421201  -3.298957   1.363286
H  -4.335751  -3.449794   1.111705
H  -7.334896  -2.629411   1.447123
H  -6.563838  -4.274369   1.496247
H  -5.957068  -0.810726   0.921963

