%chk=/home/boittier/MDCM/nms_sampling/acrolein_geom.xyz.dir/acrolein_1562.chk
%nproc=8
%mem=16000MB
#p B2PLYPD3/Def2QZVP 

acrolein

0 1
C  -5.004704  -1.405467   0.916934
O  -3.945487  -0.848844   0.632145
C  -5.178954  -2.835792   1.162952
C  -6.398893  -3.303745   1.386016
H  -4.291442  -3.485429   1.187419
H  -7.406307  -2.645427   1.284930
H  -6.580075  -4.294413   1.570667
H  -5.893297  -0.781132   1.104390
