%chk=/home/boittier/MDCM/nms_sampling/acrolein_geom.xyz.dir/acrolein_2658.chk
%nproc=8
%mem=16000MB
#p B2PLYPD3/Def2QZVP 

acrolein

0 1
C  -5.033660  -1.359017   0.821714
O  -3.943659  -0.893813   0.720173
C  -5.208712  -2.782151   1.089498
C  -6.348343  -3.336179   1.471017
H  -4.431597  -3.431084   1.050168
H  -7.096601  -2.659338   1.607527
H  -6.505899  -4.362954   1.448375
H  -6.022218  -0.793038   0.651624

