%chk=/home/boittier/MDCM/nms_sampling/acrolein_geom.xyz.dir/acrolein_2190.chk
%nproc=8
%mem=16000MB
#p B2PLYPD3/Def2QZVP 

acrolein

0 1
C  -5.032780  -1.351717   0.975566
O  -3.944481  -0.891190   0.595240
C  -5.204760  -2.797187   1.185038
C  -6.366195  -3.331715   1.365420
H  -4.225233  -3.464522   1.166776
H  -7.155058  -2.739183   1.077090
H  -6.535940  -4.372238   1.618589
H  -5.996885  -0.708944   1.167166
