%chk=/home/boittier/MDCM/nms_sampling/acrolein_geom.xyz.dir/acrolein_2047.chk
%nproc=8
%mem=16000MB
#p B2PLYPD3/Def2QZVP 

acrolein

0 1
C  -4.976075  -1.457376   0.842080
O  -3.948945  -0.825641   0.701700
C  -5.191877  -2.833946   1.110496
C  -6.425347  -3.293347   1.419244
H  -4.159200  -3.413121   1.114333
H  -7.290978  -2.666601   1.713026
H  -6.619054  -4.265238   1.596600
H  -5.932060  -0.793166   0.736095

