%chk=/home/boittier/MDCM/nms_sampling/acrolein_geom.xyz.dir/acrolein_421.chk
%nproc=8
%mem=16000MB
#p B2PLYPD3/Def2QZVP 

acrolein

0 1
C  -5.002799  -1.383351   0.901441
O  -3.928287  -0.872935   0.643648
C  -5.197558  -2.810092   1.171507
C  -6.408133  -3.313227   1.381170
H  -4.350427  -3.411650   1.126417
H  -7.220803  -2.668767   1.446939
H  -6.572922  -4.383974   1.540923
H  -5.974044  -0.792937   0.990712
