%chk=/home/boittier/MDCM/nms_sampling/acrolein_geom.xyz.dir/acrolein_2331.chk
%nproc=8
%mem=16000MB
#p B2PLYPD3/Def2QZVP 

acrolein

0 1
C  -4.978142  -1.429261   0.958743
O  -3.916664  -0.847878   0.603558
C  -5.230938  -2.823367   1.154956
C  -6.439260  -3.295319   1.378862
H  -4.231638  -3.437035   1.381176
H  -7.288872  -2.700454   1.219172
H  -6.550653  -4.269845   1.500732
H  -5.798823  -0.802082   1.167161

