%chk=/home/boittier/MDCM/nms_sampling/acrolein_geom.xyz.dir/acrolein_863.chk
%nproc=8
%mem=16000MB
#p B2PLYPD3/Def2QZVP 

acrolein

0 1
C  -5.006652  -1.375873   0.902587
O  -3.926561  -0.877147   0.649124
C  -5.197128  -2.809953   1.163333
C  -6.408836  -3.315491   1.385654
H  -4.291489  -3.418883   1.092103
H  -7.266732  -2.661397   1.444600
H  -6.593751  -4.427020   1.581575
H  -5.949281  -0.755064   0.936008
