%chk=/home/boittier/MDCM/nms_sampling/acrolein_geom.xyz.dir/acrolein_2245.chk
%nproc=8
%mem=16000MB
#p B2PLYPD3/Def2QZVP 

acrolein

0 1
C  -5.017353  -1.378872   0.915388
O  -3.950738  -0.886258   0.634363
C  -5.188679  -2.763157   1.142210
C  -6.371905  -3.356087   1.392909
H  -4.338283  -3.349791   1.310449
H  -7.241621  -2.713893   1.335684
H  -6.447769  -4.372605   1.534361
H  -6.092589  -0.714699   1.101406
