%chk=/home/boittier/MDCM/nms_sampling/acrolein_geom.xyz.dir/acrolein_1724.chk
%nproc=8
%mem=16000MB
#p B2PLYPD3/Def2QZVP 

acrolein

0 1
C  -5.004942  -1.391241   0.873069
O  -3.949159  -0.850444   0.684009
C  -5.175656  -2.849108   1.122715
C  -6.400709  -3.304435   1.434512
H  -4.278762  -3.444848   1.017289
H  -7.295185  -2.633534   1.462588
H  -6.541612  -4.279926   1.542477
H  -5.995929  -0.811393   0.745312
