%chk=/home/boittier/MDCM/nms_sampling/acrolein_geom.xyz.dir/acrolein_1710.chk
%nproc=8
%mem=16000MB
#p B2PLYPD3/Def2QZVP 

acrolein

0 1
C  -5.001446  -1.384472   0.870701
O  -3.924505  -0.878754   0.684788
C  -5.207533  -2.793667   1.126085
C  -6.406544  -3.317871   1.415827
H  -4.323971  -3.430264   1.023139
H  -7.248572  -2.668711   1.522203
H  -6.581428  -4.435258   1.641399
H  -5.949525  -0.763886   0.774291
