%chk=/home/boittier/MDCM/nms_sampling/acrolein_geom.xyz.dir/acrolein_266.chk
%nproc=8
%mem=16000MB
#p B2PLYPD3/Def2QZVP 

acrolein

0 1
C  -5.000622  -1.385734   0.872034
O  -3.927360  -0.866245   0.669324
C  -5.200761  -2.828835   1.144935
C  -6.414813  -3.300250   1.410783
H  -4.310996  -3.441556   1.091200
H  -7.240434  -2.674364   1.456930
H  -6.581549  -4.360000   1.542991
H  -5.915813  -0.797744   0.925669

