%chk=/home/boittier/MDCM/nms_sampling/acrolein_geom.xyz.dir/acrolein_1788.chk
%nproc=8
%mem=16000MB
#p B2PLYPD3/Def2QZVP 

acrolein

0 1
C  -5.002832  -1.397617   0.866595
O  -3.946654  -0.854868   0.688023
C  -5.186690  -2.831475   1.112223
C  -6.394049  -3.297999   1.421116
H  -4.313790  -3.483382   1.032436
H  -7.265114  -2.672267   1.399712
H  -6.558114  -4.341737   1.752974
H  -5.993496  -0.808059   0.878581
