%chk=/home/boittier/MDCM/nms_sampling/acrolein_geom.xyz.dir/acrolein_2009.chk
%nproc=8
%mem=16000MB
#p B2PLYPD3/Def2QZVP 

acrolein

0 1
C  -5.012835  -1.372701   0.964403
O  -3.902497  -0.886609   0.596023
C  -5.220215  -2.780366   1.170607
C  -6.410288  -3.331453   1.365339
H  -4.231811  -3.451822   1.394243
H  -7.180410  -2.685729   1.297938
H  -6.681010  -4.452642   1.448761
H  -6.031345  -0.736038   1.148495
