%chk=/home/boittier/MDCM/nms_sampling/acrolein_geom.xyz.dir/acrolein_2286.chk
%nproc=8
%mem=16000MB
#p B2PLYPD3/Def2QZVP 

acrolein

0 1
C  -5.015815  -1.392794   0.808626
O  -3.950899  -0.843604   0.716268
C  -5.175993  -2.861445   1.088696
C  -6.408149  -3.298598   1.459050
H  -4.208612  -3.510155   1.092502
H  -7.226313  -2.653580   1.398580
H  -6.552722  -4.179367   1.653377
H  -5.875076  -0.852081   0.979211

