%chk=/home/boittier/MDCM/nms_sampling/acrolein_geom.xyz.dir/acrolein_296.chk
%nproc=8
%mem=16000MB
#p B2PLYPD3/Def2QZVP 

acrolein

0 1
C  -5.012911  -1.380492   0.874420
O  -3.936960  -0.873726   0.677887
C  -5.189729  -2.807618   1.124885
C  -6.395051  -3.311236   1.411984
H  -4.300629  -3.445436   1.061747
H  -7.211142  -2.672438   1.414952
H  -6.617389  -4.429012   1.702420
H  -5.976958  -0.789682   0.905172

