%chk=/home/boittier/MDCM/nms_sampling/acrolein_geom.xyz.dir/acrolein_1092.chk
%nproc=8
%mem=16000MB
#p B2PLYPD3/Def2QZVP 

acrolein

0 1
C  -5.018830  -1.386258   0.895371
O  -3.941576  -0.878461   0.642638
C  -5.190423  -2.781282   1.178982
C  -6.380413  -3.331084   1.389128
H  -4.321158  -3.420243   1.120931
H  -7.265605  -2.670226   1.428399
H  -6.556484  -4.431465   1.452088
H  -5.987024  -0.750015   1.008211
