%chk=/home/boittier/MDCM/nms_sampling/acrolein_geom.xyz.dir/acrolein_176.chk
%nproc=8
%mem=16000MB
#p B2PLYPD3/Def2QZVP 

acrolein

0 1
C  -5.011189  -1.384335   0.882009
O  -3.935927  -0.869820   0.667007
C  -5.190136  -2.805311   1.140785
C  -6.400696  -3.320230   1.400393
H  -4.278362  -3.441174   1.088323
H  -7.234430  -2.671798   1.442476
H  -6.578887  -4.373734   1.646915
H  -5.985115  -0.794447   0.931922

