%chk=/home/boittier/MDCM/nms_sampling/acrolein_geom.xyz.dir/acrolein_1669.chk
%nproc=8
%mem=16000MB
#p B2PLYPD3/Def2QZVP 

acrolein

0 1
C  -5.004470  -1.373770   0.873628
O  -3.921474  -0.877765   0.686531
C  -5.205795  -2.814120   1.122302
C  -6.399930  -3.312685   1.422256
H  -4.352589  -3.436183   1.009883
H  -7.204471  -2.677167   1.531569
H  -6.615490  -4.388604   1.613088
H  -6.033267  -0.747096   0.715498

