%chk=/home/boittier/MDCM/nms_sampling/acrolein_geom.xyz.dir/acrolein_1670.chk
%nproc=8
%mem=16000MB
#p B2PLYPD3/Def2QZVP 

acrolein

0 1
C  -5.001478  -1.400198   0.871218
O  -3.952542  -0.857618   0.691634
C  -5.176694  -2.828201   1.099096
C  -6.405704  -3.298654   1.425667
H  -4.308882  -3.470464   1.055729
H  -7.308323  -2.678601   1.446986
H  -6.561883  -4.338309   1.750641
H  -5.855803  -0.782035   0.798892

