%chk=/home/boittier/MDCM/nms_sampling/acrolein_geom.xyz.dir/acrolein_1036.chk
%nproc=8
%mem=16000MB
#p B2PLYPD3/Def2QZVP 

acrolein

0 1
C  -4.984456  -1.401124   0.874137
O  -3.929793  -0.854065   0.675017
C  -5.195383  -2.841528   1.132011
C  -6.425363  -3.289453   1.421102
H  -4.351159  -3.482837   1.025578
H  -7.314802  -2.604592   1.330069
H  -6.597688  -4.345823   1.653822
H  -5.883134  -0.823477   0.936857

