%chk=/home/boittier/MDCM/nms_sampling/acrolein_geom.xyz.dir/acrolein_2330.chk
%nproc=8
%mem=16000MB
#p B2PLYPD3/Def2QZVP 

acrolein

0 1
C  -4.979568  -1.437864   0.816953
O  -3.952646  -0.837651   0.722396
C  -5.181026  -2.843896   1.071882
C  -6.416882  -3.282853   1.435574
H  -4.333638  -3.425793   1.105528
H  -7.207764  -2.603841   1.502631
H  -6.609716  -4.321810   1.874503
H  -5.948848  -0.780964   0.921175
