%chk=/home/boittier/MDCM/nms_sampling/acrolein_geom.xyz.dir/acrolein_2437.chk
%nproc=8
%mem=16000MB
#p B2PLYPD3/Def2QZVP 

acrolein

0 1
C  -5.014955  -1.356878   0.980234
O  -3.907723  -0.896163   0.587302
C  -5.227970  -2.791843   1.225912
C  -6.415065  -3.322790   1.335708
H  -4.212175  -3.385861   1.151166
H  -7.169719  -2.750925   1.425229
H  -6.602909  -4.448610   1.415947
H  -5.882294  -0.747400   0.961909

