%chk=/home/boittier/MDCM/nms_sampling/acrolein_geom.xyz.dir/acrolein_146.chk
%nproc=8
%mem=16000MB
#p B2PLYPD3/Def2QZVP 

acrolein

0 1
C  -5.016206  -1.373670   0.919165
O  -3.938679  -0.872394   0.634982
C  -5.178989  -2.817481   1.174735
C  -6.396848  -3.314444   1.382766
H  -4.333972  -3.453036   1.112909
H  -7.272579  -2.655826   1.399741
H  -6.566687  -4.392267   1.510984
H  -5.971594  -0.773249   0.955927
