%chk=/home/boittier/MDCM/nms_sampling/acrolein_geom.xyz.dir/acrolein_2376.chk
%nproc=8
%mem=16000MB
#p B2PLYPD3/Def2QZVP 

acrolein

0 1
C  -5.015894  -1.355055   0.924367
O  -3.903541  -0.894780   0.628080
C  -5.203844  -2.778340   1.157411
C  -6.412878  -3.330304   1.355329
H  -4.259741  -3.455633   1.267916
H  -7.265811  -2.671592   1.361112
H  -6.717578  -4.538539   1.744604
H  -5.990529  -0.774167   1.168081

