%chk=/home/boittier/MDCM/nms_sampling/acrolein_geom.xyz.dir/acrolein_6.chk
%nproc=8
%mem=16000MB
#p B2PLYPD3/Def2QZVP 

acrolein

0 1
C  -5.010409  -1.381782   0.878390
O  -3.940291  -0.871305   0.669340
C  -5.191499  -2.817223   1.129112
C  -6.395072  -3.314619   1.413194
H  -4.339212  -3.431697   1.138399
H  -7.227732  -2.664744   1.425017
H  -6.542959  -4.340411   1.596866
H  -5.950308  -0.761206   0.938229

