%chk=/home/boittier/MDCM/nms_sampling/acrolein_geom.xyz.dir/acrolein_2185.chk
%nproc=8
%mem=16000MB
#p B2PLYPD3/Def2QZVP 

acrolein

0 1
C  -5.027677  -1.373178   0.805877
O  -3.946199  -0.882577   0.717931
C  -5.209964  -2.782466   1.120061
C  -6.358209  -3.350541   1.423475
H  -4.302396  -3.368898   1.041242
H  -7.252328  -2.653515   1.750256
H  -6.474130  -4.290123   1.597189
H  -5.947609  -0.813950   0.782136

