%chk=/home/boittier/MDCM/nms_sampling/acrolein_geom.xyz.dir/acrolein_2315.chk
%nproc=8
%mem=16000MB
#p B2PLYPD3/Def2QZVP 

acrolein

0 1
C  -5.005583  -1.424407   0.813959
O  -3.950726  -0.832362   0.727486
C  -5.190000  -2.861345   1.085686
C  -6.410914  -3.291088   1.431411
H  -4.124602  -3.459826   0.988723
H  -7.302614  -2.656903   1.552802
H  -6.574767  -4.201643   1.883433
H  -5.803623  -0.799887   0.829832

