%chk=/home/boittier/MDCM/nms_sampling/acrolein_geom.xyz.dir/acrolein_482.chk
%nproc=8
%mem=16000MB
#p B2PLYPD3/Def2QZVP 

acrolein

0 1
C  -5.004038  -1.390808   0.882261
O  -3.942275  -0.860792   0.672749
C  -5.180692  -2.827586   1.125456
C  -6.403015  -3.308192   1.406018
H  -4.333276  -3.430674   1.090278
H  -7.312533  -2.644067   1.421508
H  -6.560342  -4.341329   1.709365
H  -5.939338  -0.802997   0.912507
