%chk=/home/boittier/MDCM/nms_sampling/acrolein_geom.xyz.dir/acrolein_1638.chk
%nproc=8
%mem=16000MB
#p B2PLYPD3/Def2QZVP 

acrolein

0 1
C  -5.002457  -1.386469   0.870823
O  -3.924720  -0.880353   0.677750
C  -5.216256  -2.787723   1.145494
C  -6.399887  -3.325138   1.414560
H  -4.300585  -3.427524   0.986226
H  -7.218780  -2.677250   1.478933
H  -6.602324  -4.387657   1.575913
H  -5.941627  -0.750136   0.817442

