%chk=/home/boittier/MDCM/nms_sampling/acrolein_geom.xyz.dir/acrolein_795.chk
%nproc=8
%mem=16000MB
#p B2PLYPD3/Def2QZVP 

acrolein

0 1
C  -5.011719  -1.371510   0.888234
O  -3.934985  -0.873762   0.666161
C  -5.191503  -2.820300   1.130555
C  -6.394983  -3.316723   1.402751
H  -4.326122  -3.423797   1.138597
H  -7.245514  -2.652482   1.467955
H  -6.561486  -4.365501   1.632714
H  -5.996260  -0.778269   0.899043

