%chk=/home/boittier/MDCM/nms_sampling/acrolein_geom.xyz.dir/acrolein_1501.chk
%nproc=8
%mem=16000MB
#p B2PLYPD3/Def2QZVP 

acrolein

0 1
C  -5.009064  -1.374977   0.944201
O  -3.923490  -0.882245   0.623056
C  -5.190739  -2.794754   1.157110
C  -6.416859  -3.318640   1.369772
H  -4.292124  -3.433431   1.222588
H  -7.240987  -2.695550   1.334844
H  -6.630682  -4.461222   1.641265
H  -5.939053  -0.747572   1.029272
