%chk=/home/boittier/MDCM/nms_sampling/acrolein_geom.xyz.dir/acrolein_2275.chk
%nproc=8
%mem=16000MB
#p B2PLYPD3/Def2QZVP 

acrolein

0 1
C  -4.994467  -1.393663   0.969986
O  -3.927385  -0.847391   0.590326
C  -5.194426  -2.860528   1.241133
C  -6.422776  -3.305069   1.330761
H  -4.287549  -3.429633   1.079444
H  -7.540609  -2.569757   1.441232
H  -6.523926  -4.229523   1.419791
H  -5.769427  -0.839558   0.970067
