%chk=/home/boittier/MDCM/nms_sampling/acrolein_geom.xyz.dir/acrolein_1211.chk
%nproc=8
%mem=16000MB
#p B2PLYPD3/Def2QZVP 

acrolein

0 1
C  -5.004164  -1.385961   0.936505
O  -3.942383  -0.859343   0.619924
C  -5.182570  -2.846229   1.163309
C  -6.402994  -3.302542   1.378612
H  -4.332031  -3.438632   1.255934
H  -7.281471  -2.671430   1.299131
H  -6.548806  -4.280727   1.536960
H  -5.956300  -0.749558   1.093820

