%chk=/home/boittier/MDCM/nms_sampling/acrolein_geom.xyz.dir/acrolein_1419.chk
%nproc=8
%mem=16000MB
#p B2PLYPD3/Def2QZVP 

acrolein

0 1
C  -5.001146  -1.376486   0.901921
O  -3.927413  -0.886546   0.637423
C  -5.214631  -2.787642   1.179149
C  -6.401457  -3.324714   1.386816
H  -4.312940  -3.380224   1.152827
H  -7.229246  -2.664524   1.417698
H  -6.595235  -4.423836   1.440751
H  -5.893474  -0.798979   1.025778
