%chk=/home/boittier/MDCM/nms_sampling/acrolein_geom.xyz.dir/acrolein_631.chk
%nproc=8
%mem=16000MB
#p B2PLYPD3/Def2QZVP 

acrolein

0 1
C  -5.006237  -1.392608   0.916094
O  -3.938502  -0.862198   0.639825
C  -5.187355  -2.820446   1.152098
C  -6.409294  -3.309692   1.392248
H  -4.253331  -3.436998   1.174677
H  -7.242230  -2.673024   1.343873
H  -6.575761  -4.361350   1.569670
H  -5.957518  -0.781283   1.004326
