%chk=/home/boittier/MDCM/nms_sampling/acrolein_geom.xyz.dir/acrolein_830.chk
%nproc=8
%mem=16000MB
#p B2PLYPD3/Def2QZVP 

acrolein

0 1
C  -4.997802  -1.400798   0.884375
O  -3.941510  -0.856768   0.670223
C  -5.184859  -2.824648   1.136811
C  -6.408906  -3.308080   1.408678
H  -4.296754  -3.458036   1.062368
H  -7.323248  -2.649709   1.460495
H  -6.577734  -4.323428   1.610406
H  -5.924078  -0.779638   0.850365

