%chk=/home/boittier/MDCM/nms_sampling/acrolein_geom.xyz.dir/acrolein_742.chk
%nproc=8
%mem=16000MB
#p B2PLYPD3/Def2QZVP 

acrolein

0 1
C  -5.004244  -1.385903   0.902627
O  -3.933305  -0.860578   0.651608
C  -5.195298  -2.841373   1.141660
C  -6.410581  -3.300786   1.401316
H  -4.292001  -3.463294   1.163054
H  -7.287695  -2.666564   1.385426
H  -6.544175  -4.306313   1.573226
H  -5.905542  -0.771244   0.960874
