%chk=/home/boittier/MDCM/nms_sampling/acrolein_geom.xyz.dir/acrolein_2103.chk
%nproc=8
%mem=16000MB
#p B2PLYPD3/Def2QZVP 

acrolein

0 1
C  -4.972008  -1.436326   0.868467
O  -3.917862  -0.834627   0.696440
C  -5.199909  -2.856245   1.111247
C  -6.446383  -3.264845   1.424502
H  -4.366566  -3.499827   0.993657
H  -7.394320  -2.613841   1.598339
H  -6.595404  -4.371753   1.651847
H  -5.844928  -0.783913   0.636413
