%chk=/home/boittier/MDCM/nms_sampling/acrolein_geom.xyz.dir/acrolein_1641.chk
%nproc=8
%mem=16000MB
#p B2PLYPD3/Def2QZVP 

acrolein

0 1
C  -4.985084  -1.414567   0.845414
O  -3.934058  -0.846208   0.687269
C  -5.198325  -2.843559   1.137125
C  -6.418872  -3.290295   1.419878
H  -4.302185  -3.483106   1.063030
H  -7.282076  -2.636514   1.532871
H  -6.597060  -4.296679   1.546205
H  -5.936445  -0.781859   0.890717

