%chk=/home/boittier/MDCM/nms_sampling/acrolein_geom.xyz.dir/acrolein_937.chk
%nproc=8
%mem=16000MB
#p B2PLYPD3/Def2QZVP 

acrolein

0 1
C  -5.001431  -1.390119   0.868690
O  -3.947737  -0.855058   0.688538
C  -5.172377  -2.854663   1.122766
C  -6.414121  -3.288620   1.421614
H  -4.307505  -3.463268   1.003791
H  -7.309349  -2.676669   1.527023
H  -6.564793  -4.322362   1.630791
H  -5.878116  -0.765224   0.737417

