%chk=/home/boittier/MDCM/nms_sampling/acrolein_geom.xyz.dir/acrolein_1699.chk
%nproc=8
%mem=16000MB
#p B2PLYPD3/Def2QZVP 

acrolein

0 1
C  -5.007278  -1.361871   0.876353
O  -3.926190  -0.890101   0.676288
C  -5.207580  -2.790216   1.110198
C  -6.395176  -3.340612   1.415942
H  -4.377384  -3.414322   1.183674
H  -7.243075  -2.653998   1.467606
H  -6.538364  -4.330018   1.644650
H  -5.971273  -0.748782   0.904568

