%chk=/home/boittier/MDCM/nms_sampling/acrolein_geom.xyz.dir/acrolein_1613.chk
%nproc=8
%mem=16000MB
#p B2PLYPD3/Def2QZVP 

acrolein

0 1
C  -5.002118  -1.401768   0.871402
O  -3.940400  -0.854746   0.672649
C  -5.197671  -2.835476   1.134487
C  -6.403644  -3.295775   1.420271
H  -4.311185  -3.466879   1.123825
H  -7.234530  -2.640003   1.487295
H  -6.564125  -4.304740   1.494337
H  -5.880365  -0.828881   0.874857

