%chk=/home/boittier/MDCM/nms_sampling/acrolein_geom.xyz.dir/acrolein_2588.chk
%nproc=8
%mem=16000MB
#p B2PLYPD3/Def2QZVP 

acrolein

0 1
C  -4.986803  -1.451863   0.818919
O  -3.946317  -0.827571   0.719828
C  -5.174260  -2.841899   1.076448
C  -6.426132  -3.279373   1.457753
H  -4.305661  -3.492275   1.058538
H  -7.253293  -2.576636   1.393003
H  -6.625321  -4.336600   1.753024
H  -5.909379  -0.791507   0.908630
