%chk=/home/boittier/MDCM/nms_sampling/acrolein_geom.xyz.dir/acrolein_949.chk
%nproc=8
%mem=16000MB
#p B2PLYPD3/Def2QZVP 

acrolein

0 1
C  -5.008042  -1.395249   0.920782
O  -3.933225  -0.858807   0.635767
C  -5.191980  -2.823302   1.165979
C  -6.411350  -3.305593   1.375839
H  -4.233296  -3.469917   1.181400
H  -7.274895  -2.651543   1.486054
H  -6.559437  -4.387326   1.525515
H  -5.950915  -0.780759   0.931700
