%chk=/home/boittier/MDCM/nms_sampling/acrolein_geom.xyz.dir/acrolein_2634.chk
%nproc=8
%mem=16000MB
#p B2PLYPD3/Def2QZVP 

acrolein

0 1
C  -4.983493  -1.395824   0.835922
O  -3.926622  -0.846980   0.714880
C  -5.182992  -2.870474   1.094588
C  -6.426283  -3.286491   1.450299
H  -4.403791  -3.473771   0.919964
H  -7.443943  -2.605125   1.375910
H  -6.529544  -4.301838   1.777383
H  -5.972994  -0.728421   0.806371
