%chk=/home/boittier/MDCM/nms_sampling/acrolein_geom.xyz.dir/acrolein_30.chk
%nproc=8
%mem=16000MB
#p B2PLYPD3/Def2QZVP 

acrolein

0 1
C  -5.000532  -1.389838   0.874990
O  -3.931182  -0.862209   0.678244
C  -5.199860  -2.832335   1.117248
C  -6.407427  -3.306931   1.423254
H  -4.328444  -3.438355   1.094348
H  -7.303840  -2.652743   1.401724
H  -6.548612  -4.298500   1.642024
H  -5.908815  -0.779900   0.888890
