%chk=/home/boittier/MDCM/nms_sampling/acrolein_geom.xyz.dir/acrolein_2367.chk
%nproc=8
%mem=16000MB
#p B2PLYPD3/Def2QZVP 

acrolein

0 1
C  -5.002808  -1.405697   0.943504
O  -3.953482  -0.846612   0.619136
C  -5.176739  -2.836623   1.179841
C  -6.401716  -3.302078   1.363450
H  -4.191526  -3.470359   1.133007
H  -7.329217  -2.586282   1.307090
H  -6.583217  -4.372568   1.627313
H  -5.947465  -0.821189   1.044084

