%chk=/home/boittier/MDCM/nms_sampling/acrolein_geom.xyz.dir/acrolein_238.chk
%nproc=8
%mem=16000MB
#p B2PLYPD3/Def2QZVP 

acrolein

0 1
C  -5.002051  -1.384418   0.915237
O  -3.930480  -0.859784   0.639542
C  -5.189853  -2.844344   1.161943
C  -6.414857  -3.300986   1.384790
H  -4.314912  -3.449359   1.118913
H  -7.315229  -2.642556   1.331669
H  -6.547968  -4.325704   1.615611
H  -5.934123  -0.777231   1.017795
