%chk=/home/boittier/MDCM/nms_sampling/acrolein_geom.xyz.dir/acrolein_2477.chk
%nproc=8
%mem=16000MB
#p B2PLYPD3/Def2QZVP 

acrolein

0 1
C  -5.025436  -1.327166   0.828144
O  -3.922837  -0.910808   0.720806
C  -5.210043  -2.798228   1.047600
C  -6.379505  -3.336228   1.472037
H  -4.412692  -3.432575   1.163017
H  -7.217182  -2.633214   1.379530
H  -6.549903  -4.418712   1.737609
H  -5.927589  -0.676940   0.874728

