%chk=/home/boittier/MDCM/nms_sampling/acrolein_geom.xyz.dir/acrolein_1381.chk
%nproc=8
%mem=16000MB
#p B2PLYPD3/Def2QZVP 

acrolein

0 1
C  -5.010213  -1.364038   0.856130
O  -3.927338  -0.879905   0.678140
C  -5.209192  -2.810190   1.140459
C  -6.403760  -3.323537   1.420063
H  -4.261439  -3.470448   1.080279
H  -7.247475  -2.664404   1.455081
H  -6.522938  -4.352786   1.532943
H  -5.936185  -0.772742   0.940968

