%chk=/home/boittier/MDCM/nms_sampling/acrolein_geom.xyz.dir/acrolein_2110.chk
%nproc=8
%mem=16000MB
#p B2PLYPD3/Def2QZVP 

acrolein

0 1
C  -5.018648  -1.379430   0.883911
O  -3.963763  -0.851029   0.689752
C  -5.173809  -2.867881   1.083405
C  -6.380345  -3.296371   1.417762
H  -4.268292  -3.534032   1.114788
H  -7.321243  -2.585993   1.464743
H  -6.525545  -4.237816   1.841818
H  -5.859346  -0.807063   0.785902
