%chk=/home/boittier/MDCM/nms_sampling/acrolein_geom.xyz.dir/acrolein_1919.chk
%nproc=8
%mem=16000MB
#p B2PLYPD3/Def2QZVP 

acrolein

0 1
C  -5.012752  -1.378718   0.831898
O  -3.918358  -0.875579   0.715718
C  -5.212321  -2.805754   1.096786
C  -6.390066  -3.323735   1.422285
H  -4.345635  -3.405626   0.972882
H  -7.256413  -2.738790   1.513159
H  -6.537402  -4.337233   1.887366
H  -6.067786  -0.722439   0.834674

