%chk=/home/boittier/MDCM/nms_sampling/acrolein_geom.xyz.dir/acrolein_1143.chk
%nproc=8
%mem=16000MB
#p B2PLYPD3/Def2QZVP 

acrolein

0 1
C  -4.995840  -1.391742   0.923193
O  -3.928144  -0.857979   0.632873
C  -5.205396  -2.846941   1.151179
C  -6.412801  -3.303215   1.378477
H  -4.356835  -3.433900   1.251253
H  -7.314181  -2.618935   1.374769
H  -6.514033  -4.243643   1.603151
H  -5.877756  -0.781425   1.053733
