%chk=/home/boittier/MDCM/nms_sampling/acrolein_geom.xyz.dir/acrolein_2260.chk
%nproc=8
%mem=16000MB
#p B2PLYPD3/Def2QZVP 

acrolein

0 1
C  -5.001621  -1.364134   0.848148
O  -3.917296  -0.900294   0.705298
C  -5.231691  -2.768396   1.068998
C  -6.393885  -3.343929   1.430741
H  -4.369144  -3.343621   1.224240
H  -7.234459  -2.711400   1.577554
H  -6.500183  -4.402636   1.751699
H  -5.973381  -0.728997   0.830750

