%chk=/home/boittier/MDCM/nms_sampling/acrolein_geom.xyz.dir/acrolein_704.chk
%nproc=8
%mem=16000MB
#p B2PLYPD3/Def2QZVP 

acrolein

0 1
C  -4.999538  -1.402004   0.918222
O  -3.938446  -0.855741   0.636415
C  -5.187123  -2.826202   1.156243
C  -6.414353  -3.303796   1.389753
H  -4.285400  -3.433405   1.191259
H  -7.279450  -2.651474   1.356943
H  -6.561153  -4.349026   1.540460
H  -5.928950  -0.809623   1.010287

