%chk=/home/boittier/MDCM/nms_sampling/acrolein_geom.xyz.dir/acrolein_299.chk
%nproc=8
%mem=16000MB
#p B2PLYPD3/Def2QZVP 

acrolein

0 1
C  -5.003827  -1.392927   0.872478
O  -3.938563  -0.870542   0.669797
C  -5.193922  -2.802926   1.146127
C  -6.399461  -3.312340   1.399942
H  -4.331365  -3.441043   1.095938
H  -7.204908  -2.667976   1.507974
H  -6.575932  -4.401871   1.592476
H  -5.977129  -0.766625   0.919556

