%chk=/home/boittier/MDCM/nms_sampling/acrolein_geom.xyz.dir/acrolein_2091.chk
%nproc=8
%mem=16000MB
#p B2PLYPD3/Def2QZVP 

acrolein

0 1
C  -5.005259  -1.403755   0.971159
O  -3.961823  -0.852205   0.588683
C  -5.178739  -2.831740   1.221055
C  -6.388890  -3.316178   1.321125
H  -4.253117  -3.429459   1.162332
H  -7.410160  -2.663586   1.312201
H  -6.531509  -4.222618   1.633635
H  -5.828670  -0.771217   1.162337
