%chk=/home/boittier/MDCM/nms_sampling/acrolein_geom.xyz.dir/acrolein_752.chk
%nproc=8
%mem=16000MB
#p B2PLYPD3/Def2QZVP 

acrolein

0 1
C  -5.007230  -1.382842   0.872057
O  -3.942252  -0.871299   0.676544
C  -5.192633  -2.814678   1.131019
C  -6.397451  -3.312626   1.417855
H  -4.330172  -3.446560   1.088389
H  -7.225269  -2.653911   1.491300
H  -6.543535  -4.356837   1.559156
H  -5.927854  -0.782760   0.846480
