%chk=/home/boittier/MDCM/nms_sampling/acrolein_geom.xyz.dir/acrolein_1978.chk
%nproc=8
%mem=16000MB
#p B2PLYPD3/Def2QZVP 

acrolein

0 1
C  -4.978863  -1.445843   0.829151
O  -3.943774  -0.836423   0.716123
C  -5.189941  -2.818787   1.097545
C  -6.426996  -3.300868   1.433760
H  -4.210076  -3.425559   1.083102
H  -7.294314  -2.684646   1.766195
H  -6.622068  -4.290443   1.579261
H  -5.925848  -0.786055   0.641404
