%chk=/home/boittier/MDCM/nms_sampling/acrolein_geom.xyz.dir/acrolein_1431.chk
%nproc=8
%mem=16000MB
#p B2PLYPD3/Def2QZVP 

acrolein

0 1
C  -5.006558  -1.370451   0.844440
O  -3.926754  -0.878944   0.694542
C  -5.198227  -2.802137   1.105147
C  -6.394043  -3.326799   1.435492
H  -4.374359  -3.444012   1.103717
H  -7.323888  -2.663100   1.399816
H  -6.574158  -4.361668   1.667846
H  -5.991636  -0.782058   0.955499
