%chk=/home/boittier/MDCM/nms_sampling/acrolein_geom.xyz.dir/acrolein_2193.chk
%nproc=8
%mem=16000MB
#p B2PLYPD3/Def2QZVP 

acrolein

0 1
C  -5.036867  -1.351416   0.820487
O  -3.952380  -0.888037   0.722522
C  -5.174574  -2.796228   1.072289
C  -6.364291  -3.335866   1.474752
H  -4.341081  -3.381274   1.083680
H  -7.160883  -2.739273   1.502688
H  -6.517321  -4.377266   1.562193
H  -6.082540  -0.786684   0.747255

