%chk=/home/boittier/MDCM/nms_sampling/acrolein_geom.xyz.dir/acrolein_1548.chk
%nproc=8
%mem=16000MB
#p B2PLYPD3/Def2QZVP 

acrolein

0 1
C  -5.014868  -1.384944   0.939410
O  -3.946058  -0.871458   0.618686
C  -5.180823  -2.809111   1.161258
C  -6.384927  -3.312283   1.375781
H  -4.390501  -3.405041   1.273705
H  -7.244787  -2.651952   1.308627
H  -6.553312  -4.409123   1.550223
H  -5.966746  -0.808959   1.094490
