%chk=/home/boittier/MDCM/nms_sampling/acrolein_geom.xyz.dir/acrolein_357.chk
%nproc=8
%mem=16000MB
#p B2PLYPD3/Def2QZVP 

acrolein

0 1
C  -5.010652  -1.379281   0.917060
O  -3.937565  -0.875626   0.638261
C  -5.192428  -2.800899   1.156914
C  -6.393920  -3.319151   1.389483
H  -4.284364  -3.436261   1.175796
H  -7.248475  -2.671699   1.376301
H  -6.611741  -4.414659   1.541436
H  -5.964934  -0.792504   0.986343
