%chk=/home/boittier/MDCM/nms_sampling/acrolein_geom.xyz.dir/acrolein_654.chk
%nproc=8
%mem=16000MB
#p B2PLYPD3/Def2QZVP 

acrolein

0 1
C  -5.005082  -1.396902   0.876352
O  -3.940161  -0.857106   0.670753
C  -5.192679  -2.831585   1.129520
C  -6.409283  -3.302086   1.413069
H  -4.248940  -3.466650   1.121747
H  -7.265186  -2.647913   1.411861
H  -6.548087  -4.335992   1.617942
H  -5.894423  -0.788523   0.947392

