%chk=/home/boittier/MDCM/nms_sampling/acrolein_geom.xyz.dir/acrolein_859.chk
%nproc=8
%mem=16000MB
#p B2PLYPD3/Def2QZVP 

acrolein

0 1
C  -5.013351  -1.369973   0.914244
O  -3.937014  -0.877902   0.641526
C  -5.198474  -2.812773   1.166684
C  -6.392748  -3.318933   1.384140
H  -4.287026  -3.423278   1.107686
H  -7.228099  -2.674415   1.426669
H  -6.568991  -4.364680   1.550000
H  -5.940181  -0.783965   0.929722

