%chk=/home/boittier/MDCM/nms_sampling/acrolein_geom.xyz.dir/acrolein_2075.chk
%nproc=8
%mem=16000MB
#p B2PLYPD3/Def2QZVP 

acrolein

0 1
C  -5.034937  -1.358053   0.913760
O  -3.950172  -0.892175   0.634712
C  -5.195269  -2.785035   1.179511
C  -6.360531  -3.348635   1.399236
H  -4.296453  -3.428493   1.136932
H  -7.121990  -2.682831   1.445993
H  -6.534636  -4.310954   1.313183
H  -6.006510  -0.704940   0.895390
