%chk=/home/boittier/MDCM/nms_sampling/acrolein_geom.xyz.dir/acrolein_2057.chk
%nproc=8
%mem=16000MB
#p B2PLYPD3/Def2QZVP 

acrolein

0 1
C  -5.015225  -1.412082   0.965870
O  -3.951387  -0.831618   0.608673
C  -5.187488  -2.869959   1.194545
C  -6.404923  -3.292067   1.362701
H  -4.147455  -3.480686   1.114558
H  -7.335708  -2.651065   1.413385
H  -6.429262  -4.208672   1.456721
H  -5.869915  -0.801362   0.862304

