%chk=/home/boittier/MDCM/nms_sampling/acrolein_geom.xyz.dir/acrolein_1140.chk
%nproc=8
%mem=16000MB
#p B2PLYPD3/Def2QZVP 

acrolein

0 1
C  -4.999120  -1.381534   0.936188
O  -3.923247  -0.859724   0.627197
C  -5.188747  -2.842791   1.184808
C  -6.427696  -3.300519   1.372686
H  -4.310181  -3.459322   1.082182
H  -7.279725  -2.653271   1.431140
H  -6.548378  -4.341517   1.504301
H  -5.985786  -0.796869   0.886645
