%chk=/home/boittier/MDCM/nms_sampling/acrolein_geom.xyz.dir/acrolein_142.chk
%nproc=8
%mem=16000MB
#p B2PLYPD3/Def2QZVP 

acrolein

0 1
C  -4.997675  -1.385845   0.882922
O  -3.929518  -0.863068   0.669860
C  -5.192038  -2.829907   1.132417
C  -6.416878  -3.304183   1.405144
H  -4.276162  -3.450093   1.113571
H  -7.328646  -2.665622   1.489641
H  -6.598361  -4.368930   1.617280
H  -5.934166  -0.789184   0.873466

