%chk=/home/boittier/MDCM/nms_sampling/acrolein_geom.xyz.dir/acrolein_1898.chk
%nproc=8
%mem=16000MB
#p B2PLYPD3/Def2QZVP 

acrolein

0 1
C  -4.989783  -1.434672   0.850699
O  -3.944670  -0.843302   0.690244
C  -5.191217  -2.826577   1.126942
C  -6.415590  -3.292518   1.416177
H  -4.344984  -3.472115   1.131562
H  -7.177926  -2.659114   1.719252
H  -6.589677  -4.260370   1.484362
H  -5.892906  -0.785241   0.741773
