%chk=/home/boittier/MDCM/nms_sampling/acrolein_geom.xyz.dir/acrolein_1743.chk
%nproc=8
%mem=16000MB
#p B2PLYPD3/Def2QZVP 

acrolein

0 1
C  -4.992607  -1.410599   0.873589
O  -3.946779  -0.849626   0.667700
C  -5.195385  -2.842686   1.155112
C  -6.408284  -3.286937   1.391737
H  -4.290425  -3.461705   1.080350
H  -7.252832  -2.676401   1.544718
H  -6.550833  -4.309551   1.591357
H  -5.888363  -0.793061   0.909699
