%chk=/home/boittier/MDCM/nms_sampling/acrolein_geom.xyz.dir/acrolein_784.chk
%nproc=8
%mem=16000MB
#p B2PLYPD3/Def2QZVP 

acrolein

0 1
C  -5.007834  -1.369297   0.906138
O  -3.928404  -0.874889   0.647079
C  -5.196840  -2.819654   1.147869
C  -6.401550  -3.314082   1.397154
H  -4.336625  -3.457643   1.164940
H  -7.258464  -2.678772   1.373421
H  -6.560237  -4.359255   1.565872
H  -5.992021  -0.771725   0.983535
