%chk=/home/boittier/MDCM/nms_sampling/acrolein_geom.xyz.dir/acrolein_2030.chk
%nproc=8
%mem=16000MB
#p B2PLYPD3/Def2QZVP 

acrolein

0 1
C  -5.006060  -1.376472   0.870416
O  -3.922202  -0.895078   0.698568
C  -5.210906  -2.764520   1.114729
C  -6.408833  -3.328494   1.422290
H  -4.355719  -3.339924   0.947160
H  -7.206945  -2.707830   1.633401
H  -6.620061  -4.474063   1.659491
H  -5.825953  -0.843921   0.572779
