%chk=/home/boittier/MDCM/nms_sampling/acrolein_geom.xyz.dir/acrolein_1331.chk
%nproc=8
%mem=16000MB
#p B2PLYPD3/Def2QZVP 

acrolein

0 1
C  -4.994099  -1.389935   0.847884
O  -3.930272  -0.854303   0.694810
C  -5.183080  -2.848962   1.105365
C  -6.433222  -3.300136   1.415901
H  -4.263848  -3.445393   1.114053
H  -7.351182  -2.639499   1.482946
H  -6.546831  -4.323898   1.768711
H  -5.918813  -0.773347   0.941911

