%chk=/home/boittier/MDCM/nms_sampling/acrolein_geom.xyz.dir/acrolein_1031.chk
%nproc=8
%mem=16000MB
#p B2PLYPD3/Def2QZVP 

acrolein

0 1
C  -4.995800  -1.394961   0.882429
O  -3.933041  -0.856504   0.682868
C  -5.194730  -2.840230   1.105127
C  -6.403832  -3.302776   1.419791
H  -4.363003  -3.449053   1.076144
H  -7.337694  -2.656712   1.434750
H  -6.548318  -4.286015   1.731548
H  -5.973729  -0.757207   0.811909

