%chk=/home/boittier/MDCM/nms_sampling/acrolein_geom.xyz.dir/acrolein_48.chk
%nproc=8
%mem=16000MB
#p B2PLYPD3/Def2QZVP 

acrolein

0 1
C  -4.999927  -1.391988   0.913220
O  -3.933478  -0.857969   0.649518
C  -5.190483  -2.836142   1.140724
C  -6.409460  -3.303404   1.393663
H  -4.330787  -3.448711   1.137094
H  -7.330541  -2.630039   1.377167
H  -6.559753  -4.324757   1.646605
H  -5.926149  -0.802179   0.935497
