%chk=/home/boittier/MDCM/nms_sampling/acrolein_geom.xyz.dir/acrolein_2189.chk
%nproc=8
%mem=16000MB
#p B2PLYPD3/Def2QZVP 

acrolein

0 1
C  -5.029384  -1.348545   0.861664
O  -3.920491  -0.898187   0.681775
C  -5.225704  -2.794089   1.124862
C  -6.362397  -3.340336   1.414794
H  -4.462116  -3.350390   1.149081
H  -7.140946  -2.630402   1.589635
H  -6.499205  -4.332041   1.545636
H  -6.003861  -0.798853   0.840321

