%chk=/home/boittier/MDCM/nms_sampling/acrolein_geom.xyz.dir/acrolein_2353.chk
%nproc=8
%mem=16000MB
#p B2PLYPD3/Def2QZVP 

acrolein

0 1
C  -4.985665  -1.431100   0.859941
O  -3.953261  -0.828734   0.712329
C  -5.169581  -2.848208   1.051405
C  -6.424630  -3.269951   1.458003
H  -4.169601  -3.525842   1.081196
H  -7.380170  -2.675997   1.366052
H  -6.651551  -4.408777   1.839069
H  -5.896255  -0.885758   0.760154

