%chk=/home/boittier/MDCM/nms_sampling/acrolein_geom.xyz.dir/acrolein_2256.chk
%nproc=8
%mem=16000MB
#p B2PLYPD3/Def2QZVP 

acrolein

0 1
C  -4.987978  -1.398128   0.825037
O  -3.917345  -0.849496   0.724289
C  -5.202366  -2.843374   1.038081
C  -6.457487  -3.297556   1.482343
H  -4.177182  -3.467242   1.193831
H  -7.314787  -2.650389   1.392140
H  -6.525366  -4.306270   1.691300
H  -5.839601  -0.854408   0.847497

