%chk=/home/boittier/MDCM/nms_sampling/acrolein_geom.xyz.dir/acrolein_1509.chk
%nproc=8
%mem=16000MB
#p B2PLYPD3/Def2QZVP 

acrolein

0 1
C  -5.006118  -1.397484   0.939017
O  -3.945933  -0.850796   0.624472
C  -5.187722  -2.852214   1.173360
C  -6.397994  -3.296337   1.362145
H  -4.325434  -3.493636   1.141894
H  -7.305170  -2.636320   1.355933
H  -6.535727  -4.238943   1.655376
H  -5.875235  -0.775349   1.017399
