%chk=/home/boittier/MDCM/nms_sampling/acrolein_geom.xyz.dir/acrolein_2515.chk
%nproc=8
%mem=16000MB
#p B2PLYPD3/Def2QZVP 

acrolein

0 1
C  -5.007331  -1.375865   0.941993
O  -3.935989  -0.849947   0.631813
C  -5.177381  -2.893848   1.176586
C  -6.423603  -3.276924   1.369913
H  -4.317339  -3.541517   1.068705
H  -7.422863  -2.587052   1.510272
H  -6.499416  -4.271592   1.538009
H  -5.769389  -0.735314   0.777306

