%chk=/home/boittier/MDCM/nms_sampling/acrolein_geom.xyz.dir/acrolein_1926.chk
%nproc=8
%mem=16000MB
#p B2PLYPD3/Def2QZVP 

acrolein

0 1
C  -5.014905  -1.373467   0.899326
O  -3.951941  -0.885446   0.644739
C  -5.182705  -2.782417   1.200708
C  -6.367619  -3.323558   1.367196
H  -4.318994  -3.377764   0.971928
H  -7.248721  -2.700225   1.506497
H  -6.678663  -4.496221   1.551406
H  -6.001178  -0.823958   0.914447
