%chk=/home/boittier/MDCM/nms_sampling/acrolein_geom.xyz.dir/acrolein_462.chk
%nproc=8
%mem=16000MB
#p B2PLYPD3/Def2QZVP 

acrolein

0 1
C  -5.004066  -1.378550   0.878564
O  -3.929803  -0.867656   0.667581
C  -5.196752  -2.826102   1.137701
C  -6.412190  -3.312853   1.401493
H  -4.294422  -3.444188   1.121068
H  -7.291429  -2.680703   1.451348
H  -6.549891  -4.307901   1.635231
H  -5.915891  -0.793242   0.953160
