%chk=/home/boittier/MDCM/nms_sampling/acrolein_geom.xyz.dir/acrolein_793.chk
%nproc=8
%mem=16000MB
#p B2PLYPD3/Def2QZVP 

acrolein

0 1
C  -5.004005  -1.383000   0.918489
O  -3.935866  -0.873241   0.636727
C  -5.193327  -2.802274   1.170178
C  -6.401707  -3.322344   1.386478
H  -4.314232  -3.433196   1.125048
H  -7.253623  -2.655340   1.412691
H  -6.579026  -4.370206   1.495624
H  -5.966118  -0.791045   0.935608

