%chk=/home/boittier/MDCM/nms_sampling/acrolein_geom.xyz.dir/acrolein_597.chk
%nproc=8
%mem=16000MB
#p B2PLYPD3/Def2QZVP 

acrolein

0 1
C  -5.000458  -1.404159   0.887599
O  -3.941472  -0.855107   0.669479
C  -5.181137  -2.820399   1.128161
C  -6.414211  -3.304167   1.408534
H  -4.274163  -3.457439   1.087830
H  -7.301615  -2.647095   1.413873
H  -6.574837  -4.376222   1.667885
H  -5.920871  -0.814086   0.891573

