%chk=/home/boittier/MDCM/nms_sampling/acrolein_geom.xyz.dir/acrolein_286.chk
%nproc=8
%mem=16000MB
#p B2PLYPD3/Def2QZVP 

acrolein

0 1
C  -5.006897  -1.384096   0.913374
O  -3.940656  -0.864749   0.635758
C  -5.186902  -2.826542   1.171134
C  -6.400592  -3.314134   1.385091
H  -4.295937  -3.429435   1.162794
H  -7.270145  -2.646026   1.418675
H  -6.546932  -4.332907   1.478872
H  -5.977130  -0.769159   0.984136
