%chk=/home/boittier/MDCM/nms_sampling/acrolein_geom.xyz.dir/acrolein_1297.chk
%nproc=8
%mem=16000MB
#p B2PLYPD3/Def2QZVP 

acrolein

0 1
C  -5.009392  -1.378137   0.891797
O  -3.922219  -0.877291   0.671948
C  -5.201194  -2.805647   1.118148
C  -6.410016  -3.315908   1.408091
H  -4.267332  -3.416430   1.100548
H  -7.197466  -2.709809   1.437257
H  -6.611299  -4.418441   1.707257
H  -5.999752  -0.739300   0.851111

