%chk=/home/boittier/MDCM/nms_sampling/acrolein_geom.xyz.dir/acrolein_399.chk
%nproc=8
%mem=16000MB
#p B2PLYPD3/Def2QZVP 

acrolein

0 1
C  -5.008669  -1.383919   0.863275
O  -3.939403  -0.866275   0.678458
C  -5.185205  -2.822177   1.130966
C  -6.407637  -3.310564   1.419755
H  -4.260609  -3.430469   1.088352
H  -7.277997  -2.670196   1.440840
H  -6.590193  -4.360146   1.585994
H  -5.900898  -0.802336   0.922206
