%chk=/home/boittier/MDCM/nms_sampling/acrolein_geom.xyz.dir/acrolein_627.chk
%nproc=8
%mem=16000MB
#p B2PLYPD3/Def2QZVP 

acrolein

0 1
C  -5.004912  -1.387922   0.878174
O  -3.927004  -0.873087   0.672538
C  -5.203464  -2.796810   1.128229
C  -6.403054  -3.318060   1.408016
H  -4.313690  -3.436875   1.135565
H  -7.241337  -2.683243   1.510253
H  -6.581764  -4.399406   1.602219
H  -5.975953  -0.792671   0.872420
