%chk=/home/boittier/MDCM/nms_sampling/acrolein_geom.xyz.dir/acrolein_440.chk
%nproc=8
%mem=16000MB
#p B2PLYPD3/Def2QZVP 

acrolein

0 1
C  -4.997060  -1.390455   0.877023
O  -3.936693  -0.863622   0.672929
C  -5.189664  -2.826491   1.124676
C  -6.408741  -3.302031   1.407777
H  -4.330827  -3.430531   1.145267
H  -7.299815  -2.647970   1.480645
H  -6.583948  -4.382620   1.637683
H  -5.931462  -0.803640   0.909147

