%chk=/home/boittier/MDCM/nms_sampling/acrolein_geom.xyz.dir/acrolein_1700.chk
%nproc=8
%mem=16000MB
#p B2PLYPD3/Def2QZVP 

acrolein

0 1
C  -4.997905  -1.384036   0.848067
O  -3.933695  -0.858830   0.692521
C  -5.200351  -2.848324   1.131840
C  -6.410847  -3.298942   1.434694
H  -4.294238  -3.485679   0.981592
H  -7.312045  -2.670146   1.469977
H  -6.527816  -4.269792   1.547787
H  -5.907541  -0.771415   0.819172

