%chk=/home/boittier/MDCM/nms_sampling/acrolein_geom.xyz.dir/acrolein_2371.chk
%nproc=8
%mem=16000MB
#p B2PLYPD3/Def2QZVP 

acrolein

0 1
C  -5.003588  -1.365727   0.941454
O  -3.907543  -0.898318   0.615099
C  -5.215743  -2.775795   1.151606
C  -6.401009  -3.311956   1.382385
H  -4.457552  -3.404455   1.345473
H  -7.212599  -2.717415   1.247845
H  -6.676608  -4.549810   1.534773
H  -5.960320  -0.805538   1.162414
