%chk=/home/boittier/MDCM/nms_sampling/acrolein_geom.xyz.dir/acrolein_1813.chk
%nproc=8
%mem=16000MB
#p B2PLYPD3/Def2QZVP 

acrolein

0 1
C  -4.999966  -1.403700   0.809595
O  -3.971367  -0.842346   0.727736
C  -5.171303  -2.862720   1.060337
C  -6.385602  -3.288849   1.467236
H  -4.338337  -3.521307   1.091385
H  -7.378559  -2.548998   1.383456
H  -6.522541  -4.248543   1.777098
H  -5.808319  -0.844226   0.923080
