%chk=/home/boittier/MDCM/nms_sampling/acrolein_geom.xyz.dir/acrolein_1640.chk
%nproc=8
%mem=16000MB
#p B2PLYPD3/Def2QZVP 

acrolein

0 1
C  -5.014518  -1.360877   0.938398
O  -3.923558  -0.883226   0.618859
C  -5.186156  -2.814953   1.193162
C  -6.407612  -3.317572   1.378575
H  -4.359712  -3.452952   1.112029
H  -7.252323  -2.679325   1.371999
H  -6.622938  -4.388040   1.407804
H  -5.956675  -0.725240   0.946532

