%chk=/home/boittier/MDCM/nms_sampling/acrolein_geom.xyz.dir/acrolein_1831.chk
%nproc=8
%mem=16000MB
#p B2PLYPD3/Def2QZVP 

acrolein

0 1
C  -4.987500  -1.382381   0.968225
O  -3.938503  -0.860959   0.607004
C  -5.172028  -2.845446   1.211063
C  -6.413784  -3.295345   1.346609
H  -4.480985  -3.424494   1.062561
H  -7.409437  -2.697943   1.502186
H  -6.558234  -4.300447   1.468191
H  -5.935066  -0.820047   0.808688

