%chk=/home/boittier/MDCM/nms_sampling/acrolein_geom.xyz.dir/acrolein_786.chk
%nproc=8
%mem=16000MB
#p B2PLYPD3/Def2QZVP 

acrolein

0 1
C  -4.999369  -1.383040   0.889650
O  -3.934426  -0.862889   0.658569
C  -5.193240  -2.834285   1.152590
C  -6.417547  -3.310474   1.394399
H  -4.273563  -3.468864   1.118824
H  -7.310354  -2.647786   1.502483
H  -6.528891  -4.294475   1.552111
H  -5.901501  -0.765772   0.904139

