%chk=/home/boittier/MDCM/nms_sampling/acrolein_geom.xyz.dir/acrolein_2683.chk
%nproc=8
%mem=16000MB
#p B2PLYPD3/Def2QZVP 

acrolein

0 1
C  -4.988185  -1.395784   0.830086
O  -3.918223  -0.848818   0.726106
C  -5.211603  -2.875296   1.060346
C  -6.444409  -3.274687   1.441215
H  -4.268756  -3.538133   1.023491
H  -7.246106  -2.623912   1.432924
H  -6.530749  -4.268010   1.977103
H  -5.828403  -0.744250   0.841098
