%chk=/home/boittier/MDCM/nms_sampling/acrolein_geom.xyz.dir/acrolein_133.chk
%nproc=8
%mem=16000MB
#p B2PLYPD3/Def2QZVP 

acrolein

0 1
C  -5.010368  -1.384328   0.860712
O  -3.937134  -0.874329   0.680406
C  -5.190197  -2.799003   1.135649
C  -6.397955  -3.320072   1.411354
H  -4.322551  -3.404201   1.077139
H  -7.255702  -2.670563   1.514154
H  -6.563670  -4.410484   1.598167
H  -5.954311  -0.796173   0.889704
