%chk=/home/boittier/MDCM/nms_sampling/acrolein_geom.xyz.dir/acrolein_1122.chk
%nproc=8
%mem=16000MB
#p B2PLYPD3/Def2QZVP 

acrolein

0 1
C  -5.014409  -1.376872   0.866731
O  -3.932257  -0.878529   0.687137
C  -5.200197  -2.802429   1.113476
C  -6.398266  -3.320393   1.413800
H  -4.278743  -3.405435   1.036367
H  -7.178941  -2.690430   1.399884
H  -6.607835  -4.377114   1.801325
H  -5.933835  -0.793377   0.909377

