%chk=/home/boittier/MDCM/nms_sampling/acrolein_geom.xyz.dir/acrolein_1356.chk
%nproc=8
%mem=16000MB
#p B2PLYPD3/Def2QZVP 

acrolein

0 1
C  -5.017027  -1.357349   0.908811
O  -3.920805  -0.886691   0.626133
C  -5.189079  -2.810313   1.199451
C  -6.403374  -3.324985   1.376753
H  -4.348016  -3.399957   1.146041
H  -7.255826  -2.646298   1.405524
H  -6.613016  -4.427218   1.390937
H  -5.998584  -0.725465   1.068696

