%chk=/home/boittier/MDCM/nms_sampling/acrolein_geom.xyz.dir/acrolein_2172.chk
%nproc=8
%mem=16000MB
#p B2PLYPD3/Def2QZVP 

acrolein

0 1
C  -4.987207  -1.393734   0.817358
O  -3.917853  -0.848143   0.721042
C  -5.186564  -2.864617   1.103875
C  -6.441250  -3.277698   1.462180
H  -4.300632  -3.534420   0.911067
H  -7.357174  -2.635198   1.453668
H  -6.691476  -4.330185   1.618226
H  -5.879896  -0.816544   0.764319
