%chk=/home/boittier/MDCM/nms_sampling/acrolein_geom.xyz.dir/acrolein_2599.chk
%nproc=8
%mem=16000MB
#p B2PLYPD3/Def2QZVP 

acrolein

0 1
C  -5.015105  -1.390450   0.969221
O  -3.962825  -0.858792   0.591990
C  -5.172906  -2.828516   1.210139
C  -6.386239  -3.316297   1.332917
H  -4.271034  -3.411960   1.180515
H  -7.357342  -2.691580   1.283421
H  -6.459869  -4.282829   1.613322
H  -5.894974  -0.773459   1.153954

