%chk=/home/boittier/MDCM/nms_sampling/acrolein_geom.xyz.dir/acrolein_2268.chk
%nproc=8
%mem=16000MB
#p B2PLYPD3/Def2QZVP 

acrolein

0 1
C  -5.029677  -1.368973   0.833405
O  -3.951591  -0.888665   0.709425
C  -5.188500  -2.809077   1.099937
C  -6.384509  -3.298642   1.456130
H  -4.266623  -3.396685   0.951670
H  -7.078362  -2.651948   1.313386
H  -6.596061  -4.562581   1.709461
H  -5.847338  -0.739283   0.885612

