%chk=/home/boittier/MDCM/nms_sampling/acrolein_geom.xyz.dir/acrolein_2373.chk
%nproc=8
%mem=16000MB
#p B2PLYPD3/Def2QZVP 

acrolein

0 1
C  -5.025166  -1.373093   0.902439
O  -3.959816  -0.889988   0.672576
C  -5.202611  -2.776360   1.100135
C  -6.350231  -3.339695   1.402419
H  -4.326736  -3.360092   1.138894
H  -7.274297  -2.695008   1.429127
H  -6.457017  -4.399769   1.827648
H  -5.914972  -0.746671   0.844462
