%chk=/home/boittier/MDCM/nms_sampling/acrolein_geom.xyz.dir/acrolein_1600.chk
%nproc=8
%mem=16000MB
#p B2PLYPD3/Def2QZVP 

acrolein

0 1
C  -4.996921  -1.393783   0.924023
O  -3.926341  -0.857060   0.629405
C  -5.209275  -2.836966   1.171284
C  -6.413220  -3.307342   1.364588
H  -4.290516  -3.433625   1.163842
H  -7.327982  -2.651603   1.349960
H  -6.549347  -4.248011   1.662083
H  -5.869268  -0.826820   1.085962
