%chk=/home/boittier/MDCM/nms_sampling/acrolein_geom.xyz.dir/acrolein_1490.chk
%nproc=8
%mem=16000MB
#p B2PLYPD3/Def2QZVP 

acrolein

0 1
C  -4.996416  -1.383908   0.864922
O  -3.926980  -0.863695   0.681511
C  -5.192644  -2.830584   1.148659
C  -6.421020  -3.301309   1.405815
H  -4.307798  -3.467831   0.965591
H  -7.232813  -2.685505   1.525295
H  -6.591119  -4.354379   1.627665
H  -5.998204  -0.791816   0.816245
