%chk=/home/boittier/MDCM/nms_sampling/acrolein_geom.xyz.dir/acrolein_599.chk
%nproc=8
%mem=16000MB
#p B2PLYPD3/Def2QZVP 

acrolein

0 1
C  -4.998296  -1.393873   0.914150
O  -3.941181  -0.857288   0.638465
C  -5.184355  -2.832659   1.160165
C  -6.414416  -3.304235   1.378457
H  -4.257660  -3.443809   1.172590
H  -7.287006  -2.652560   1.385505
H  -6.586750  -4.334874   1.612889
H  -5.927186  -0.806656   1.031067
