%chk=/home/boittier/MDCM/nms_sampling/acrolein_geom.xyz.dir/acrolein_693.chk
%nproc=8
%mem=16000MB
#p B2PLYPD3/Def2QZVP 

acrolein

0 1
C  -5.009668  -1.382061   0.876778
O  -3.939329  -0.870596   0.673955
C  -5.182281  -2.814120   1.140710
C  -6.396984  -3.315418   1.407469
H  -4.358022  -3.420537   1.035036
H  -7.280472  -2.652142   1.477820
H  -6.570396  -4.377201   1.619151
H  -5.962830  -0.784849   0.851986

