%chk=/home/boittier/MDCM/nms_sampling/acrolein_geom.xyz.dir/acrolein_865.chk
%nproc=8
%mem=16000MB
#p B2PLYPD3/Def2QZVP 

acrolein

0 1
C  -5.000208  -1.393690   0.914500
O  -3.942569  -0.857760   0.636197
C  -5.183681  -2.832829   1.177481
C  -6.401505  -3.300443   1.377128
H  -4.345163  -3.466298   1.108906
H  -7.336962  -2.659156   1.410499
H  -6.557989  -4.338040   1.544585
H  -5.935924  -0.797902   0.984845
