%chk=/home/boittier/MDCM/nms_sampling/acrolein_geom.xyz.dir/acrolein_2440.chk
%nproc=8
%mem=16000MB
#p B2PLYPD3/Def2QZVP 

acrolein

0 1
C  -5.036774  -1.357548   0.950348
O  -3.954468  -0.882145   0.600200
C  -5.158202  -2.795921   1.198826
C  -6.374849  -3.338501   1.367529
H  -4.250323  -3.387404   1.284125
H  -7.313105  -2.710456   1.397692
H  -6.598656  -4.412471   1.300854
H  -5.990084  -0.797409   1.051859
