%chk=/home/boittier/MDCM/nms_sampling/acrolein_geom.xyz.dir/acrolein_2352.chk
%nproc=8
%mem=16000MB
#p B2PLYPD3/Def2QZVP 

acrolein

0 1
C  -5.008295  -1.416275   0.974019
O  -3.950935  -0.858550   0.587411
C  -5.165674  -2.790314   1.213005
C  -6.398073  -3.321513   1.342127
H  -4.305582  -3.348507   1.266416
H  -7.298784  -2.634224   1.439136
H  -6.633370  -4.428973   1.366150
H  -5.949844  -0.845289   1.018533
