%chk=/home/boittier/MDCM/nms_sampling/acrolein_geom.xyz.dir/acrolein_1043.chk
%nproc=8
%mem=16000MB
#p B2PLYPD3/Def2QZVP 

acrolein

0 1
C  -4.996444  -1.388007   0.939975
O  -3.932997  -0.858324   0.619914
C  -5.189319  -2.848135   1.193653
C  -6.417569  -3.295188   1.378268
H  -4.374570  -3.446082   1.086719
H  -7.368414  -2.679814   1.373985
H  -6.533843  -4.275071   1.421871
H  -5.842300  -0.800816   0.921356
