%chk=/home/boittier/MDCM/nms_sampling/acrolein_geom.xyz.dir/acrolein_1237.chk
%nproc=8
%mem=16000MB
#p B2PLYPD3/Def2QZVP 

acrolein

0 1
C  -5.018275  -1.371300   0.955319
O  -3.948409  -0.883481   0.615429
C  -5.188475  -2.803066   1.174919
C  -6.373386  -3.322347   1.364456
H  -4.387952  -3.424380   1.166653
H  -7.247292  -2.631543   1.345620
H  -6.557586  -4.397769   1.585360
H  -5.926972  -0.740810   0.976246
