%chk=/home/boittier/MDCM/nms_sampling/acrolein_geom.xyz.dir/acrolein_1718.chk
%nproc=8
%mem=16000MB
#p B2PLYPD3/Def2QZVP 

acrolein

0 1
C  -5.019764  -1.370330   0.861037
O  -3.945068  -0.878752   0.676786
C  -5.179877  -2.800962   1.124164
C  -6.382649  -3.328112   1.418050
H  -4.277909  -3.449405   1.146572
H  -7.283006  -2.649772   1.398004
H  -6.595625  -4.421249   1.627792
H  -6.002979  -0.737288   1.013461

