%chk=/home/boittier/MDCM/nms_sampling/acrolein_geom.xyz.dir/acrolein_2682.chk
%nproc=8
%mem=16000MB
#p B2PLYPD3/Def2QZVP 

acrolein

0 1
C  -5.028205  -1.363264   0.962095
O  -3.944680  -0.893932   0.601571
C  -5.181155  -2.783751   1.221578
C  -6.384395  -3.327622   1.375570
H  -4.275056  -3.428245   1.036208
H  -7.152042  -2.681762   1.326575
H  -6.682570  -4.476029   1.286808
H  -5.904461  -0.725535   0.889312
