%chk=/home/boittier/MDCM/nms_sampling/acrolein_geom.xyz.dir/acrolein_845.chk
%nproc=8
%mem=16000MB
#p B2PLYPD3/Def2QZVP 

acrolein

0 1
C  -5.006305  -1.391905   0.900546
O  -3.942138  -0.859322   0.658136
C  -5.184999  -2.833283   1.136199
C  -6.409859  -3.303023   1.397607
H  -4.278487  -3.463133   1.120401
H  -7.264743  -2.659048   1.396314
H  -6.546071  -4.327579   1.667888
H  -5.901831  -0.776005   0.933266
