%chk=/home/boittier/MDCM/nms_sampling/acrolein_geom.xyz.dir/acrolein_917.chk
%nproc=8
%mem=16000MB
#p B2PLYPD3/Def2QZVP 

acrolein

0 1
C  -5.004372  -1.368387   0.913002
O  -3.928883  -0.883955   0.630539
C  -5.204439  -2.791916   1.196261
C  -6.394466  -3.326142   1.363034
H  -4.343942  -3.445891   1.106725
H  -7.312909  -2.705106   1.468008
H  -6.570238  -4.390658   1.511913
H  -5.956961  -0.791746   1.009146
