%chk=/home/boittier/MDCM/nms_sampling/acrolein_geom.xyz.dir/acrolein_1051.chk
%nproc=8
%mem=16000MB
#p B2PLYPD3/Def2QZVP 

acrolein

0 1
C  -5.006766  -1.369277   0.865888
O  -3.923818  -0.882882   0.681501
C  -5.201152  -2.808530   1.122087
C  -6.413026  -3.316151   1.416279
H  -4.345659  -3.409127   1.135936
H  -7.203866  -2.641868   1.563365
H  -6.596172  -4.399007   1.567618
H  -5.888751  -0.798617   0.830586
