%chk=/home/boittier/MDCM/nms_sampling/acrolein_geom.xyz.dir/acrolein_604.chk
%nproc=8
%mem=16000MB
#p B2PLYPD3/Def2QZVP 

acrolein

0 1
C  -5.005819  -1.370165   0.881065
O  -3.933632  -0.881429   0.671253
C  -5.197428  -2.807950   1.120117
C  -6.398205  -3.316206   1.408406
H  -4.369343  -3.438892   1.160004
H  -7.243159  -2.671446   1.446486
H  -6.584741  -4.374242   1.662245
H  -5.917735  -0.781835   0.929460

