%chk=/home/boittier/MDCM/nms_sampling/acrolein_geom.xyz.dir/acrolein_450.chk
%nproc=8
%mem=16000MB
#p B2PLYPD3/Def2QZVP 

acrolein

0 1
C  -4.996420  -1.401897   0.879687
O  -3.942702  -0.856386   0.664087
C  -5.190603  -2.829042   1.151013
C  -6.412366  -3.299462   1.404308
H  -4.288365  -3.445419   1.087820
H  -7.249453  -2.655557   1.460423
H  -6.554862  -4.340741   1.543794
H  -5.912766  -0.807078   0.921727

