%chk=/home/boittier/MDCM/nms_sampling/acrolein_geom.xyz.dir/acrolein_1012.chk
%nproc=8
%mem=16000MB
#p B2PLYPD3/Def2QZVP 

acrolein

0 1
C  -4.993217  -1.386751   0.868881
O  -3.923162  -0.876599   0.678365
C  -5.203187  -2.801527   1.110519
C  -6.415103  -3.311565   1.422359
H  -4.367178  -3.410493   1.171402
H  -7.203437  -2.692627   1.415143
H  -6.602558  -4.414602   1.639969
H  -5.995217  -0.762114   0.951851
