%chk=/home/boittier/MDCM/nms_sampling/acrolein_geom.xyz.dir/acrolein_2549.chk
%nproc=8
%mem=16000MB
#p B2PLYPD3/Def2QZVP 

acrolein

0 1
C  -5.025029  -1.318033   0.965145
O  -3.925251  -0.912033   0.598371
C  -5.208446  -2.791257   1.217655
C  -6.372509  -3.346069   1.326512
H  -4.347899  -3.381922   1.083237
H  -7.292739  -2.717160   1.319413
H  -6.587153  -4.394987   1.676269
H  -5.961386  -0.756260   1.095385

