%chk=/home/boittier/MDCM/nms_sampling/acrolein_geom.xyz.dir/acrolein_2364.chk
%nproc=8
%mem=16000MB
#p B2PLYPD3/Def2QZVP 

acrolein

0 1
C  -4.993636  -1.390626   0.917290
O  -3.906764  -0.871553   0.646905
C  -5.211293  -2.792437   1.161399
C  -6.423771  -3.325293   1.416471
H  -4.390110  -3.380811   1.030989
H  -7.244842  -2.673636   1.383094
H  -6.531610  -4.377062   1.394394
H  -6.064921  -0.829992   0.776954

