%chk=/home/boittier/MDCM/nms_sampling/acrolein_geom.xyz.dir/acrolein_2300.chk
%nproc=8
%mem=16000MB
#p B2PLYPD3/Def2QZVP 

acrolein

0 1
C  -4.986413  -1.376281   0.927436
O  -3.923473  -0.851548   0.623486
C  -5.180195  -2.852049   1.191658
C  -6.444699  -3.308554   1.363177
H  -4.243422  -3.533331   1.175390
H  -7.425552  -2.703290   1.517163
H  -6.526220  -4.232166   1.439104
H  -6.005403  -0.792228   0.950622
