%chk=/home/boittier/MDCM/nms_sampling/acrolein_geom.xyz.dir/acrolein_1779.chk
%nproc=8
%mem=16000MB
#p B2PLYPD3/Def2QZVP 

acrolein

0 1
C  -5.000666  -1.394658   0.848242
O  -3.940221  -0.857455   0.696564
C  -5.188861  -2.829258   1.122881
C  -6.419283  -3.310165   1.430894
H  -4.207836  -3.465258   0.969418
H  -7.272178  -2.626541   1.449682
H  -6.575017  -4.311630   1.656035
H  -5.880682  -0.798254   0.831675
