%chk=/home/boittier/MDCM/nms_sampling/acrolein_geom.xyz.dir/acrolein_475.chk
%nproc=8
%mem=16000MB
#p B2PLYPD3/Def2QZVP 

acrolein

0 1
C  -5.013736  -1.377746   0.883298
O  -3.933101  -0.876294   0.672910
C  -5.199963  -2.810583   1.121326
C  -6.397069  -3.311182   1.409840
H  -4.293901  -3.431778   1.105601
H  -7.188584  -2.685595   1.417349
H  -6.590350  -4.400897   1.694073
H  -5.939640  -0.776470   0.904634
