%chk=/home/boittier/MDCM/nms_sampling/acrolein_geom.xyz.dir/acrolein_1706.chk
%nproc=8
%mem=16000MB
#p B2PLYPD3/Def2QZVP 

acrolein

0 1
C  -5.008760  -1.393219   0.867619
O  -3.945853  -0.864389   0.682948
C  -5.183042  -2.822779   1.136762
C  -6.407120  -3.306424   1.411626
H  -4.231988  -3.423196   1.000600
H  -7.254860  -2.665125   1.520665
H  -6.620035  -4.367978   1.629312
H  -5.848280  -0.773803   0.799912
