%chk=/home/boittier/MDCM/nms_sampling/acrolein_geom.xyz.dir/acrolein_1462.chk
%nproc=8
%mem=16000MB
#p B2PLYPD3/Def2QZVP 

acrolein

0 1
C  -5.010907  -1.401549   0.880163
O  -3.935445  -0.871319   0.674324
C  -5.200639  -2.781855   1.124128
C  -6.388879  -3.325755   1.422030
H  -4.290347  -3.426109   1.050587
H  -7.217003  -2.672965   1.331305
H  -6.605752  -4.408478   1.667753
H  -5.991569  -0.763682   0.917584
