%chk=/home/boittier/MDCM/nms_sampling/acrolein_geom.xyz.dir/acrolein_1507.chk
%nproc=8
%mem=16000MB
#p B2PLYPD3/Def2QZVP 

acrolein

0 1
C  -4.989045  -1.412622   0.944828
O  -3.935650  -0.849997   0.616891
C  -5.180942  -2.839752   1.186643
C  -6.423752  -3.290501   1.364896
H  -4.354489  -3.423244   1.153662
H  -7.316401  -2.610521   1.396526
H  -6.607135  -4.368040   1.506862
H  -5.904756  -0.793625   0.971142
