%chk=/home/boittier/MDCM/nms_sampling/acrolein_geom.xyz.dir/acrolein_520.chk
%nproc=8
%mem=16000MB
#p B2PLYPD3/Def2QZVP 

acrolein

0 1
C  -5.006433  -1.379935   0.905964
O  -3.936816  -0.874404   0.644427
C  -5.192196  -2.812014   1.171354
C  -6.395169  -3.314008   1.384400
H  -4.343986  -3.425625   1.089085
H  -7.280870  -2.667966   1.439308
H  -6.580729  -4.390477   1.539055
H  -5.953213  -0.760660   0.940612
