%chk=/home/boittier/MDCM/nms_sampling/acrolein_geom.xyz.dir/acrolein_1027.chk
%nproc=8
%mem=16000MB
#p B2PLYPD3/Def2QZVP 

acrolein

0 1
C  -5.006988  -1.397708   0.905954
O  -3.941015  -0.870472   0.644277
C  -5.186672  -2.802221   1.165724
C  -6.401419  -3.310047   1.388635
H  -4.348639  -3.439828   1.144954
H  -7.209489  -2.620299   1.487021
H  -6.617865  -4.421083   1.474832
H  -5.891411  -0.774221   0.913445

