%chk=/home/boittier/MDCM/nms_sampling/acrolein_geom.xyz.dir/acrolein_541.chk
%nproc=8
%mem=16000MB
#p B2PLYPD3/Def2QZVP 

acrolein

0 1
C  -5.011669  -1.383617   0.889517
O  -3.941090  -0.863867   0.659845
C  -5.180699  -2.830835   1.154534
C  -6.397834  -3.305403   1.402598
H  -4.312885  -3.447856   1.049051
H  -7.286813  -2.661258   1.403076
H  -6.572722  -4.365773   1.576527
H  -5.960499  -0.772377   0.920999

