%chk=/home/boittier/MDCM/nms_sampling/acrolein_geom.xyz.dir/acrolein_2575.chk
%nproc=8
%mem=16000MB
#p B2PLYPD3/Def2QZVP 

acrolein

0 1
C  -5.038196  -1.336788   0.924825
O  -3.923601  -0.896424   0.629189
C  -5.176066  -2.794238   1.213316
C  -6.385655  -3.339986   1.351968
H  -4.327744  -3.467450   0.984282
H  -7.341460  -2.688618   1.527901
H  -6.571562  -4.472519   1.529280
H  -6.051015  -0.670437   0.876405
