%chk=/home/boittier/MDCM/nms_sampling/acrolein_geom.xyz.dir/acrolein_179.chk
%nproc=8
%mem=16000MB
#p B2PLYPD3/Def2QZVP 

acrolein

0 1
C  -4.998428  -1.392064   0.915691
O  -3.935635  -0.861465   0.636672
C  -5.188632  -2.831028   1.176620
C  -6.414446  -3.299565   1.375321
H  -4.334890  -3.440662   1.103304
H  -7.289616  -2.668222   1.416096
H  -6.580395  -4.339477   1.563954
H  -5.887357  -0.809303   0.976201
