%chk=/home/boittier/MDCM/nms_sampling/acrolein_geom.xyz.dir/acrolein_2506.chk
%nproc=8
%mem=16000MB
#p B2PLYPD3/Def2QZVP 

acrolein

0 1
C  -4.975861  -1.444169   0.820114
O  -3.956448  -0.831716   0.716417
C  -5.191990  -2.817254   1.102334
C  -6.418015  -3.294790   1.442578
H  -4.203557  -3.483627   1.073973
H  -7.301543  -2.705322   1.705478
H  -6.551209  -4.281276   1.530907
H  -5.921572  -0.901316   0.701907

