%chk=/home/boittier/MDCM/nms_sampling/acrolein_geom.xyz.dir/acrolein_1438.chk
%nproc=8
%mem=16000MB
#p B2PLYPD3/Def2QZVP 

acrolein

0 1
C  -5.008754  -1.389778   0.859526
O  -3.938227  -0.867423   0.690483
C  -5.187363  -2.798099   1.114061
C  -6.397679  -3.326607   1.414703
H  -4.331230  -3.436106   1.044102
H  -7.263072  -2.666060   1.445716
H  -6.525424  -4.349281   1.772855
H  -6.019314  -0.806087   0.896099
