%chk=/home/boittier/MDCM/nms_sampling/acrolein_geom.xyz.dir/acrolein_1354.chk
%nproc=8
%mem=16000MB
#p B2PLYPD3/Def2QZVP 

acrolein

0 1
C  -5.002089  -1.400991   0.863827
O  -3.947266  -0.853578   0.680110
C  -5.187997  -2.838622   1.124022
C  -6.391659  -3.304312   1.427043
H  -4.332261  -3.433493   1.114169
H  -7.282928  -2.623802   1.464751
H  -6.523262  -4.304232   1.538964
H  -5.996664  -0.758707   0.880536

