%chk=/home/boittier/MDCM/nms_sampling/acrolein_geom.xyz.dir/acrolein_1054.chk
%nproc=8
%mem=16000MB
#p B2PLYPD3/Def2QZVP 

acrolein

0 1
C  -5.001722  -1.403051   0.925272
O  -3.936122  -0.854218   0.626257
C  -5.199217  -2.840620   1.160277
C  -6.412142  -3.286431   1.385376
H  -4.288279  -3.502656   1.255593
H  -7.222585  -2.665157   1.320944
H  -6.565070  -4.336000   1.509703
H  -5.873961  -0.777235   1.087149

