%chk=/home/boittier/MDCM/nms_sampling/acrolein_geom.xyz.dir/acrolein_1074.chk
%nproc=8
%mem=16000MB
#p B2PLYPD3/Def2QZVP 

acrolein

0 1
C  -4.993218  -1.417933   0.866029
O  -3.940596  -0.848520   0.679588
C  -5.191298  -2.838362   1.116232
C  -6.416103  -3.290875   1.410139
H  -4.323344  -3.441407   1.146617
H  -7.238764  -2.656290   1.442931
H  -6.593781  -4.288890   1.711119
H  -5.867131  -0.789488   0.969772
