%chk=/home/boittier/MDCM/nms_sampling/acrolein_geom.xyz.dir/acrolein_1315.chk
%nproc=8
%mem=16000MB
#p B2PLYPD3/Def2QZVP 

acrolein

0 1
C  -4.985814  -1.397358   0.890436
O  -3.931108  -0.852942   0.665067
C  -5.186845  -2.838003   1.115429
C  -6.426315  -3.303575   1.403388
H  -4.342926  -3.438560   1.224038
H  -7.386065  -2.673252   1.447254
H  -6.534032  -4.284434   1.669855
H  -5.946345  -0.808794   0.952818
