%chk=/home/boittier/MDCM/nms_sampling/acrolein_geom.xyz.dir/acrolein_753.chk
%nproc=8
%mem=16000MB
#p B2PLYPD3/Def2QZVP 

acrolein

0 1
C  -5.009838  -1.372616   0.866483
O  -3.930611  -0.878507   0.681193
C  -5.192807  -2.809500   1.122140
C  -6.403014  -3.310593   1.423191
H  -4.326256  -3.440681   1.068370
H  -7.221171  -2.664008   1.398487
H  -6.604343  -4.442962   1.646461
H  -5.960458  -0.784799   0.911989
