%chk=/home/boittier/MDCM/nms_sampling/acrolein_geom.xyz.dir/acrolein_1173.chk
%nproc=8
%mem=16000MB
#p B2PLYPD3/Def2QZVP 

acrolein

0 1
C  -5.007959  -1.385036   0.931397
O  -3.940083  -0.856901   0.623418
C  -5.186546  -2.846201   1.189552
C  -6.415803  -3.301937   1.372924
H  -4.264721  -3.451223   1.101475
H  -7.262315  -2.651383   1.357288
H  -6.499525  -4.287040   1.504925
H  -5.887518  -0.814896   0.996221
