%chk=/home/boittier/MDCM/nms_sampling/acrolein_geom.xyz.dir/acrolein_1517.chk
%nproc=8
%mem=16000MB
#p B2PLYPD3/Def2QZVP 

acrolein

0 1
C  -5.010881  -1.385098   0.858524
O  -3.936217  -0.873158   0.694975
C  -5.189051  -2.804861   1.085677
C  -6.391124  -3.317026   1.444119
H  -4.374168  -3.397090   1.134516
H  -7.264644  -2.637590   1.389359
H  -6.581361  -4.413869   1.681814
H  -5.972325  -0.799004   0.877597

