%chk=/home/boittier/MDCM/nms_sampling/acrolein_geom.xyz.dir/acrolein_352.chk
%nproc=8
%mem=16000MB
#p B2PLYPD3/Def2QZVP 

acrolein

0 1
C  -5.010955  -1.371273   0.908275
O  -3.929460  -0.881079   0.643798
C  -5.199733  -2.804298   1.170243
C  -6.403569  -3.319532   1.389959
H  -4.296921  -3.443956   1.074732
H  -7.236610  -2.662673   1.397167
H  -6.579709  -4.404227   1.529661
H  -5.919504  -0.759782   0.939833
