%chk=/home/boittier/MDCM/nms_sampling/acrolein_geom.xyz.dir/acrolein_1694.chk
%nproc=8
%mem=16000MB
#p B2PLYPD3/Def2QZVP 

acrolein

0 1
C  -5.005116  -1.377041   0.852724
O  -3.928698  -0.874883   0.684402
C  -5.186732  -2.809896   1.137018
C  -6.419743  -3.314505   1.407458
H  -4.285251  -3.457414   1.081985
H  -7.270691  -2.654446   1.576398
H  -6.593633  -4.427111   1.598571
H  -5.931787  -0.755526   0.880094
