%chk=/home/boittier/MDCM/nms_sampling/acrolein_geom.xyz.dir/acrolein_869.chk
%nproc=8
%mem=16000MB
#p B2PLYPD3/Def2QZVP 

acrolein

0 1
C  -5.003110  -1.394156   0.909369
O  -3.941605  -0.862188   0.639357
C  -5.186223  -2.820355   1.176174
C  -6.409838  -3.307731   1.375922
H  -4.258219  -3.452143   1.123322
H  -7.282814  -2.653456   1.465949
H  -6.567675  -4.378204   1.531950
H  -5.918056  -0.773632   0.964590
