%chk=/home/boittier/MDCM/nms_sampling/acrolein_geom.xyz.dir/acrolein_79.chk
%nproc=8
%mem=16000MB
#p B2PLYPD3/Def2QZVP 

acrolein

0 1
C  -5.009653  -1.368805   0.913331
O  -3.934045  -0.877243   0.638643
C  -5.187556  -2.810423   1.169341
C  -6.403738  -3.322107   1.388013
H  -4.305964  -3.444391   1.100029
H  -7.272080  -2.649805   1.337839
H  -6.579042  -4.382549   1.555375
H  -5.959622  -0.779641   1.002610
