%chk=/home/boittier/MDCM/nms_sampling/acrolein_geom.xyz.dir/acrolein_1228.chk
%nproc=8
%mem=16000MB
#p B2PLYPD3/Def2QZVP 

acrolein

0 1
C  -5.008948  -1.383695   0.875571
O  -3.938558  -0.880379   0.670140
C  -5.195070  -2.781503   1.134213
C  -6.394349  -3.326502   1.423013
H  -4.293568  -3.437913   1.130459
H  -7.203372  -2.710117   1.468945
H  -6.589916  -4.423400   1.471326
H  -5.992634  -0.757337   0.870986
