%chk=/home/boittier/MDCM/nms_sampling/acrolein_geom.xyz.dir/acrolein_537.chk
%nproc=8
%mem=16000MB
#p B2PLYPD3/Def2QZVP 

acrolein

0 1
C  -5.011901  -1.364897   0.914162
O  -3.936649  -0.878924   0.636409
C  -5.187200  -2.818857   1.178914
C  -6.400712  -3.313245   1.386456
H  -4.340522  -3.450986   1.084879
H  -7.250834  -2.674931   1.375347
H  -6.565651  -4.376865   1.496001
H  -5.928337  -0.769359   0.969671
