%chk=/home/boittier/MDCM/nms_sampling/acrolein_geom.xyz.dir/acrolein_875.chk
%nproc=8
%mem=16000MB
#p B2PLYPD3/Def2QZVP 

acrolein

0 1
C  -5.010899  -1.364039   0.886909
O  -3.934207  -0.880095   0.666453
C  -5.193905  -2.817822   1.126981
C  -6.399966  -3.319916   1.414367
H  -4.334530  -3.445472   1.138414
H  -7.225578  -2.647808   1.407729
H  -6.557801  -4.345968   1.595358
H  -5.944014  -0.756079   0.914978
