%chk=/home/boittier/MDCM/nms_sampling/acrolein_geom.xyz.dir/acrolein_2629.chk
%nproc=8
%mem=16000MB
#p B2PLYPD3/Def2QZVP 

acrolein

0 1
C  -5.027194  -1.368282   0.924694
O  -3.943734  -0.864929   0.602297
C  -5.179244  -2.857971   1.248906
C  -6.384633  -3.290582   1.323881
H  -4.340045  -3.527214   1.167143
H  -7.298493  -2.674387   1.579881
H  -6.558863  -4.321942   1.367086
H  -5.879358  -0.727700   1.111896
