%chk=/home/boittier/MDCM/nms_sampling/acrolein_geom.xyz.dir/acrolein_2157.chk
%nproc=8
%mem=16000MB
#p B2PLYPD3/Def2QZVP 

acrolein

0 1
C  -5.038390  -1.359480   0.942507
O  -3.942496  -0.889714   0.613435
C  -5.182100  -2.797067   1.219696
C  -6.362345  -3.321771   1.343711
H  -4.355048  -3.380247   1.016714
H  -7.141573  -2.746875   1.399382
H  -6.577622  -4.477012   1.568717
H  -6.100104  -0.708917   0.995118
