%chk=/home/boittier/MDCM/nms_sampling/acrolein_geom.xyz.dir/acrolein_260.chk
%nproc=8
%mem=16000MB
#p B2PLYPD3/Def2QZVP 

acrolein

0 1
C  -5.004914  -1.389173   0.919906
O  -3.944262  -0.859865   0.641578
C  -5.177083  -2.833291   1.149969
C  -6.406234  -3.301058   1.384243
H  -4.311237  -3.469977   1.157240
H  -7.297341  -2.650884   1.379986
H  -6.566967  -4.361688   1.635760
H  -5.934182  -0.784432   0.968396

