%chk=/home/boittier/MDCM/nms_sampling/acrolein_geom.xyz.dir/acrolein_1200.chk
%nproc=8
%mem=16000MB
#p B2PLYPD3/Def2QZVP 

acrolein

0 1
C  -4.995954  -1.385766   0.904325
O  -3.932964  -0.858136   0.642250
C  -5.194253  -2.847148   1.183130
C  -6.415869  -3.303365   1.387848
H  -4.356539  -3.444739   1.035369
H  -7.310041  -2.670839   1.385382
H  -6.527130  -4.218995   1.505475
H  -5.888941  -0.812263   0.961269
