%chk=/home/boittier/MDCM/nms_sampling/acrolein_geom.xyz.dir/acrolein_162.chk
%nproc=8
%mem=16000MB
#p B2PLYPD3/Def2QZVP 

acrolein

0 1
C  -5.010377  -1.380778   0.879122
O  -3.943520  -0.877856   0.671248
C  -5.191329  -2.801212   1.124139
C  -6.393484  -3.321599   1.416776
H  -4.319985  -3.409171   1.133177
H  -7.246805  -2.661959   1.413913
H  -6.554833  -4.387124   1.608221
H  -5.909226  -0.762524   0.922727
