%chk=/home/boittier/MDCM/nms_sampling/acrolein_geom.xyz.dir/acrolein_2074.chk
%nproc=8
%mem=16000MB
#p B2PLYPD3/Def2QZVP 

acrolein

0 1
C  -5.010600  -1.371192   0.934503
O  -3.941645  -0.884772   0.597071
C  -5.177514  -2.796202   1.241837
C  -6.392204  -3.315285   1.336941
H  -4.335293  -3.458633   1.175304
H  -7.164333  -2.687586   1.448364
H  -6.685092  -4.484826   1.352717
H  -6.044146  -0.715559   1.150205

