%chk=/home/boittier/MDCM/nms_sampling/acrolein_geom.xyz.dir/acrolein_2496.chk
%nproc=8
%mem=16000MB
#p B2PLYPD3/Def2QZVP 

acrolein

0 1
C  -5.003965  -1.424647   0.845307
O  -3.945478  -0.838962   0.705856
C  -5.195946  -2.840940   1.085993
C  -6.414402  -3.282131   1.434523
H  -4.176851  -3.534308   1.041493
H  -7.253174  -2.693074   1.364622
H  -6.558805  -4.301947   1.862236
H  -5.813389  -0.813276   0.918975
