%chk=/home/boittier/MDCM/nms_sampling/acrolein_geom.xyz.dir/acrolein_1186.chk
%nproc=8
%mem=16000MB
#p B2PLYPD3/Def2QZVP 

acrolein

0 1
C  -4.992543  -1.414322   0.865573
O  -3.948148  -0.847254   0.688807
C  -5.180454  -2.833119   1.121443
C  -6.409031  -3.294975   1.434288
H  -4.251595  -3.480559   1.004440
H  -7.362193  -2.639442   1.477182
H  -6.620565  -4.360465   1.567283
H  -5.902777  -0.785753   0.749810

