%chk=/home/boittier/MDCM/nms_sampling/acrolein_geom.xyz.dir/acrolein_171.chk
%nproc=8
%mem=16000MB
#p B2PLYPD3/Def2QZVP 

acrolein

0 1
C  -5.018353  -1.370129   0.908604
O  -3.939828  -0.878828   0.639467
C  -5.187378  -2.809758   1.164589
C  -6.392608  -3.318699   1.387846
H  -4.329403  -3.448710   1.159579
H  -7.240819  -2.683643   1.379012
H  -6.556420  -4.369806   1.530348
H  -5.924774  -0.756515   1.020116
