%chk=/home/boittier/MDCM/nms_sampling/acrolein_geom.xyz.dir/acrolein_2254.chk
%nproc=8
%mem=16000MB
#p B2PLYPD3/Def2QZVP 

acrolein

0 1
C  -5.006868  -1.373431   0.905598
O  -3.898013  -0.893575   0.619320
C  -5.216062  -2.763933   1.222317
C  -6.423810  -3.349256   1.366430
H  -4.254900  -3.352032   1.147535
H  -7.151006  -2.660929   1.469551
H  -6.659314  -4.469082   1.297952
H  -6.080077  -0.704802   1.087359
