%chk=/home/boittier/MDCM/nms_sampling/acrolein_geom.xyz.dir/acrolein_809.chk
%nproc=8
%mem=16000MB
#p B2PLYPD3/Def2QZVP 

acrolein

0 1
C  -5.004133  -1.378187   0.924403
O  -3.932594  -0.877478   0.634223
C  -5.200372  -2.811530   1.169328
C  -6.400862  -3.307548   1.380007
H  -4.354035  -3.419388   1.131878
H  -7.242548  -2.680956   1.409994
H  -6.588959  -4.404333   1.540006
H  -5.902233  -0.794076   0.943202
