%chk=/home/boittier/MDCM/nms_sampling/acrolein_geom.xyz.dir/acrolein_2536.chk
%nproc=8
%mem=16000MB
#p B2PLYPD3/Def2QZVP 

acrolein

0 1
C  -4.994469  -1.370298   0.816631
O  -3.918275  -0.894446   0.717416
C  -5.217283  -2.770021   1.091682
C  -6.409861  -3.322277   1.470790
H  -4.363920  -3.437688   1.095925
H  -7.261706  -2.736435   1.590883
H  -6.623977  -4.468532   1.420254
H  -5.889438  -0.810899   0.725191

