%chk=/home/boittier/MDCM/nms_sampling/acrolein_geom.xyz.dir/acrolein_63.chk
%nproc=8
%mem=16000MB
#p B2PLYPD3/Def2QZVP 

acrolein

0 1
C  -5.005590  -1.371455   0.874201
O  -3.930568  -0.875748   0.668936
C  -5.198776  -2.815433   1.135923
C  -6.408160  -3.317287   1.410346
H  -4.290016  -3.455746   1.124635
H  -7.254998  -2.682163   1.422573
H  -6.561692  -4.346494   1.594723
H  -5.935059  -0.766562   0.965674
