%chk=/home/boittier/MDCM/nms_sampling/acrolein_geom.xyz.dir/acrolein_2631.chk
%nproc=8
%mem=16000MB
#p B2PLYPD3/Def2QZVP 

acrolein

0 1
C  -4.987362  -1.430040   0.922873
O  -3.942185  -0.832431   0.637970
C  -5.188643  -2.842146   1.130023
C  -6.429526  -3.288815   1.403537
H  -4.099118  -3.489893   1.283421
H  -7.291782  -2.692693   1.311956
H  -6.583866  -4.339807   1.545773
H  -5.994705  -0.779446   1.020569
