%chk=/home/boittier/MDCM/nms_sampling/acrolein_geom.xyz.dir/acrolein_951.chk
%nproc=8
%mem=16000MB
#p B2PLYPD3/Def2QZVP 

acrolein

0 1
C  -4.994820  -1.412713   0.879436
O  -3.948283  -0.843454   0.672110
C  -5.186015  -2.843435   1.109016
C  -6.402435  -3.291848   1.423424
H  -4.310414  -3.499988   1.201454
H  -7.305010  -2.664354   1.392621
H  -6.531366  -4.286783   1.612504
H  -5.969990  -0.790580   0.949412
