%chk=/home/boittier/MDCM/nms_sampling/acrolein_geom.xyz.dir/acrolein_1181.chk
%nproc=8
%mem=16000MB
#p B2PLYPD3/Def2QZVP 

acrolein

0 1
C  -5.016718  -1.365752   0.927539
O  -3.926419  -0.878116   0.627833
C  -5.187850  -2.820412   1.166942
C  -6.401655  -3.319049   1.368105
H  -4.346699  -3.413925   1.218829
H  -7.217594  -2.658304   1.412100
H  -6.572028  -4.380019   1.582257
H  -6.028122  -0.729343   1.034806
