%chk=/home/boittier/MDCM/nms_sampling/acrolein_geom.xyz.dir/acrolein_2285.chk
%nproc=8
%mem=16000MB
#p B2PLYPD3/Def2QZVP 

acrolein

0 1
C  -5.015798  -1.364077   0.856852
O  -3.928509  -0.886374   0.686031
C  -5.181519  -2.790347   1.118115
C  -6.393053  -3.336385   1.435644
H  -4.368328  -3.389501   1.151015
H  -7.401491  -2.737391   1.575724
H  -6.553865  -4.415812   1.433552
H  -6.017317  -0.698434   0.788448
