%chk=/home/boittier/MDCM/nms_sampling/acrolein_geom.xyz.dir/acrolein_1601.chk
%nproc=8
%mem=16000MB
#p B2PLYPD3/Def2QZVP 

acrolein

0 1
C  -5.015632  -1.362854   0.947488
O  -3.926901  -0.890187   0.622022
C  -5.195972  -2.796856   1.165616
C  -6.408023  -3.318086   1.370079
H  -4.289217  -3.402581   1.169100
H  -7.195066  -2.715838   1.336658
H  -6.626241  -4.458647   1.616238
H  -5.894358  -0.759408   0.984514

