%chk=/home/boittier/MDCM/nms_sampling/acrolein_geom.xyz.dir/acrolein_922.chk
%nproc=8
%mem=16000MB
#p B2PLYPD3/Def2QZVP 

acrolein

0 1
C  -4.992113  -1.388720   0.844651
O  -3.930333  -0.858030   0.693548
C  -5.198717  -2.842651   1.129584
C  -6.423091  -3.295100   1.419117
H  -4.282800  -3.498801   1.048407
H  -7.282265  -2.655757   1.589634
H  -6.573695  -4.311293   1.583217
H  -5.899527  -0.803265   0.821038

