%chk=/home/boittier/MDCM/nms_sampling/acrolein_geom.xyz.dir/acrolein_858.chk
%nproc=8
%mem=16000MB
#p B2PLYPD3/Def2QZVP 

acrolein

0 1
C  -5.010214  -1.373592   0.913298
O  -3.933898  -0.874862   0.644438
C  -5.201273  -2.817236   1.149022
C  -6.398229  -3.318673   1.387376
H  -4.279402  -3.433858   1.172968
H  -7.261627  -2.677466   1.414272
H  -6.545524  -4.339598   1.598218
H  -5.933389  -0.752834   0.959786
