%chk=/home/boittier/MDCM/nms_sampling/acrolein_geom.xyz.dir/acrolein_1530.chk
%nproc=8
%mem=16000MB
#p B2PLYPD3/Def2QZVP 

acrolein

0 1
C  -4.988032  -1.392043   0.879628
O  -3.929593  -0.859645   0.684675
C  -5.197186  -2.849145   1.102305
C  -6.429675  -3.285452   1.431765
H  -4.293330  -3.450933   1.066808
H  -7.286225  -2.631114   1.394986
H  -6.585199  -4.385604   1.684877
H  -5.868482  -0.767226   0.806548
