%chk=/home/boittier/MDCM/nms_sampling/acrolein_geom.xyz.dir/acrolein_2521.chk
%nproc=8
%mem=16000MB
#p B2PLYPD3/Def2QZVP 

acrolein

0 1
C  -5.025522  -1.323249   0.981646
O  -3.914426  -0.903295   0.593223
C  -5.191068  -2.811813   1.177283
C  -6.388684  -3.315651   1.371165
H  -4.430630  -3.425189   1.211648
H  -7.270086  -2.725322   1.083835
H  -6.621707  -4.509700   1.574869
H  -6.043578  -0.755279   1.139606
