%chk=/home/boittier/MDCM/nms_sampling/acrolein_geom.xyz.dir/acrolein_1884.chk
%nproc=8
%mem=16000MB
#p B2PLYPD3/Def2QZVP 

acrolein

0 1
C  -5.011790  -1.386153   0.821062
O  -3.913870  -0.894086   0.726564
C  -5.211223  -2.747731   1.053635
C  -6.394118  -3.335845   1.450351
H  -4.346626  -3.392717   1.148411
H  -7.250475  -2.690474   1.534466
H  -6.661645  -4.562702   1.816599
H  -5.992712  -0.727912   0.828860

