%chk=/home/boittier/MDCM/nms_sampling/acrolein_geom.xyz.dir/acrolein_1763.chk
%nproc=8
%mem=16000MB
#p B2PLYPD3/Def2QZVP 

acrolein

0 1
C  -4.992876  -1.405780   0.883568
O  -3.928189  -0.857886   0.682239
C  -5.198375  -2.820838   1.103584
C  -6.420465  -3.303405   1.415013
H  -4.290974  -3.429101   1.084251
H  -7.351885  -2.645270   1.426072
H  -6.575402  -4.377806   1.777152
H  -5.883927  -0.787896   0.837603
