%chk=/home/boittier/MDCM/nms_sampling/acrolein_geom.xyz.dir/acrolein_387.chk
%nproc=8
%mem=16000MB
#p B2PLYPD3/Def2QZVP 

acrolein

0 1
C  -4.999225  -1.383857   0.910270
O  -3.930171  -0.866986   0.641272
C  -5.194680  -2.821605   1.163729
C  -6.413320  -3.308996   1.391166
H  -4.281483  -3.456620   1.147139
H  -7.308805  -2.646737   1.418486
H  -6.597486  -4.379653   1.494176
H  -5.928040  -0.790314   0.952843
