%chk=/home/boittier/MDCM/nms_sampling/acrolein_geom.xyz.dir/acrolein_207.chk
%nproc=8
%mem=16000MB
#p B2PLYPD3/Def2QZVP 

acrolein

0 1
C  -5.003582  -1.385261   0.873424
O  -3.941137  -0.861932   0.670978
C  -5.184587  -2.834608   1.144565
C  -6.410668  -3.308464   1.402457
H  -4.261894  -3.440644   1.088583
H  -7.323246  -2.637380   1.519408
H  -6.561244  -4.331502   1.579762
H  -5.890227  -0.780371   0.888081
