%chk=/home/boittier/MDCM/nms_sampling/acrolein_geom.xyz.dir/acrolein_1225.chk
%nproc=8
%mem=16000MB
#p B2PLYPD3/Def2QZVP 

acrolein

0 1
C  -5.020238  -1.376856   0.902971
O  -3.938060  -0.877556   0.651694
C  -5.202614  -2.803626   1.153837
C  -6.388942  -3.313144   1.386474
H  -4.275529  -3.457694   1.146340
H  -7.135681  -2.679129   1.529206
H  -6.574198  -4.403224   1.551195
H  -5.931914  -0.802412   0.878065

