%chk=/home/boittier/MDCM/nms_sampling/acrolein_geom.xyz.dir/acrolein_1498.chk
%nproc=8
%mem=16000MB
#p B2PLYPD3/Def2QZVP 

acrolein

0 1
C  -5.019571  -1.373351   0.901366
O  -3.937648  -0.878145   0.636583
C  -5.196999  -2.816218   1.190955
C  -6.386677  -3.308091   1.383716
H  -4.321247  -3.413358   1.103883
H  -7.178969  -2.670814   1.435036
H  -6.604541  -4.404914   1.417342
H  -5.914753  -0.792669   1.001005
