%chk=/home/boittier/MDCM/nms_sampling/acrolein_geom.xyz.dir/acrolein_741.chk
%nproc=8
%mem=16000MB
#p B2PLYPD3/Def2QZVP 

acrolein

0 1
C  -5.007507  -1.384389   0.886219
O  -3.931510  -0.876759   0.660938
C  -5.201972  -2.798088   1.147843
C  -6.401682  -3.316064   1.408348
H  -4.311979  -3.437624   1.107256
H  -7.254423  -2.667730   1.440132
H  -6.580325  -4.413895   1.516444
H  -5.894540  -0.783830   0.911686
