%chk=/home/boittier/MDCM/nms_sampling/acrolein_geom.xyz.dir/acrolein_1787.chk
%nproc=8
%mem=16000MB
#p B2PLYPD3/Def2QZVP 

acrolein

0 1
C  -5.010163  -1.378968   0.930697
O  -3.924009  -0.879236   0.631655
C  -5.200463  -2.796888   1.178255
C  -6.395673  -3.323374   1.375756
H  -4.352556  -3.395897   1.103714
H  -7.324307  -2.700204   1.466609
H  -6.574415  -4.409477   1.496691
H  -5.970287  -0.750636   0.870013
