%chk=/home/boittier/MDCM/nms_sampling/acrolein_geom.xyz.dir/acrolein_1039.chk
%nproc=8
%mem=16000MB
#p B2PLYPD3/Def2QZVP 

acrolein

0 1
C  -5.014180  -1.356389   0.925758
O  -3.932887  -0.880595   0.633972
C  -5.202478  -2.826006   1.180143
C  -6.389305  -3.315702   1.372485
H  -4.322614  -3.435048   1.082531
H  -7.220332  -2.693805   1.456884
H  -6.546454  -4.331836   1.540414
H  -5.982439  -0.774288   0.897170
