%chk=/home/boittier/MDCM/nms_sampling/acrolein_geom.xyz.dir/acrolein_1577.chk
%nproc=8
%mem=16000MB
#p B2PLYPD3/Def2QZVP 

acrolein

0 1
C  -4.988787  -1.414242   0.907132
O  -3.946887  -0.849618   0.629432
C  -5.190001  -2.829049   1.192935
C  -6.415970  -3.293063   1.380086
H  -4.268452  -3.467240   1.150982
H  -7.323344  -2.643737   1.412079
H  -6.570626  -4.351936   1.401737
H  -5.843201  -0.834700   1.051984

