%chk=/home/boittier/MDCM/nms_sampling/acrolein_geom.xyz.dir/acrolein_2029.chk
%nproc=8
%mem=16000MB
#p B2PLYPD3/Def2QZVP 

acrolein

0 1
C  -5.015917  -1.364597   0.875929
O  -3.947746  -0.882277   0.689430
C  -5.184736  -2.788306   1.083846
C  -6.385799  -3.345420   1.440981
H  -4.302966  -3.411419   1.083545
H  -7.258110  -2.683497   1.280015
H  -6.478432  -4.334562   1.784010
H  -6.029213  -0.784114   0.887235

