%chk=/home/boittier/MDCM/nms_sampling/acrolein_geom.xyz.dir/acrolein_2202.chk
%nproc=8
%mem=16000MB
#p B2PLYPD3/Def2QZVP 

acrolein

0 1
C  -5.009401  -1.396237   0.850874
O  -3.947891  -0.868615   0.707763
C  -5.182802  -2.784707   1.059930
C  -6.398871  -3.334678   1.448526
H  -4.160170  -3.452091   1.183414
H  -7.156749  -2.633567   1.465146
H  -6.618012  -4.419301   1.749831
H  -6.078153  -0.737467   0.821440
