%chk=/home/boittier/MDCM/nms_sampling/acrolein_geom.xyz.dir/acrolein_2289.chk
%nproc=8
%mem=16000MB
#p B2PLYPD3/Def2QZVP 

acrolein

0 1
C  -5.022743  -1.351221   0.832868
O  -3.925760  -0.888317   0.716198
C  -5.195767  -2.814895   1.081633
C  -6.410484  -3.330316   1.442549
H  -4.311380  -3.407648   1.020705
H  -7.238429  -2.688062   1.436788
H  -6.470539  -4.327245   1.823747
H  -5.889846  -0.706954   0.846629
