%chk=/home/boittier/MDCM/nms_sampling/acrolein_geom.xyz.dir/acrolein_585.chk
%nproc=8
%mem=16000MB
#p B2PLYPD3/Def2QZVP 

acrolein

0 1
C  -5.011888  -1.381095   0.910314
O  -3.935867  -0.873164   0.638599
C  -5.193014  -2.807063   1.163127
C  -6.390201  -3.319863   1.375253
H  -4.357381  -3.433164   1.183822
H  -7.238109  -2.654920   1.410301
H  -6.558634  -4.367748   1.605232
H  -5.998679  -0.778069   1.045876
