%chk=/home/boittier/MDCM/nms_sampling/acrolein_geom.xyz.dir/acrolein_457.chk
%nproc=8
%mem=16000MB
#p B2PLYPD3/Def2QZVP 

acrolein

0 1
C  -5.001167  -1.400571   0.895124
O  -3.939911  -0.860007   0.662371
C  -5.190897  -2.824712   1.127644
C  -6.410756  -3.302142   1.402050
H  -4.296967  -3.433682   1.153811
H  -7.289372  -2.651698   1.424799
H  -6.560703  -4.357173   1.656906
H  -5.862428  -0.786413   0.924398

