%chk=/home/boittier/MDCM/nms_sampling/acrolein_geom.xyz.dir/acrolein_350.chk
%nproc=8
%mem=16000MB
#p B2PLYPD3/Def2QZVP 

acrolein

0 1
C  -5.006344  -1.382986   0.906089
O  -3.936417  -0.876594   0.638704
C  -5.200069  -2.799675   1.175398
C  -6.402022  -3.320731   1.386717
H  -4.284990  -3.413575   1.125709
H  -7.204670  -2.665935   1.395297
H  -6.563688  -4.391409   1.490236
H  -5.936746  -0.776976   1.006675
