%chk=/home/boittier/MDCM/nms_sampling/acrolein_geom.xyz.dir/acrolein_1333.chk
%nproc=8
%mem=16000MB
#p B2PLYPD3/Def2QZVP 

acrolein

0 1
C  -5.009137  -1.382019   0.944668
O  -3.944487  -0.872635   0.617674
C  -5.192490  -2.809347   1.191267
C  -6.390762  -3.325562   1.366434
H  -4.328438  -3.438449   1.129360
H  -7.259855  -2.661428   1.428754
H  -6.529652  -4.296093   1.465460
H  -5.933878  -0.748774   0.922618

