%chk=/home/boittier/MDCM/nms_sampling/acrolein_geom.xyz.dir/acrolein_519.chk
%nproc=8
%mem=16000MB
#p B2PLYPD3/Def2QZVP 

acrolein

0 1
C  -5.011589  -1.382666   0.908960
O  -3.941562  -0.862383   0.640712
C  -5.185716  -2.835337   1.167769
C  -6.403868  -3.307024   1.390912
H  -4.285526  -3.444835   1.140502
H  -7.275984  -2.652786   1.425035
H  -6.523770  -4.322636   1.473807
H  -5.911104  -0.792207   0.952684
