%chk=/home/boittier/MDCM/nms_sampling/acrolein_geom.xyz.dir/acrolein_1456.chk
%nproc=8
%mem=16000MB
#p B2PLYPD3/Def2QZVP 

acrolein

0 1
C  -4.987764  -1.419517   0.941415
O  -3.941035  -0.845179   0.625152
C  -5.192215  -2.836021   1.163255
C  -6.418017  -3.288329   1.365951
H  -4.319736  -3.486395   1.178077
H  -7.263090  -2.669666   1.350853
H  -6.556176  -4.305592   1.661680
H  -5.918914  -0.803963   1.013199

