%chk=/home/boittier/MDCM/nms_sampling/acrolein_geom.xyz.dir/acrolein_1671.chk
%nproc=8
%mem=16000MB
#p B2PLYPD3/Def2QZVP 

acrolein

0 1
C  -4.998851  -1.377027   0.874015
O  -3.930855  -0.867438   0.671717
C  -5.197304  -2.838160   1.135188
C  -6.415187  -3.308845   1.421325
H  -4.315178  -3.456316   1.124102
H  -7.255246  -2.658899   1.500557
H  -6.558496  -4.274029   1.469451
H  -5.919804  -0.752109   0.849122

