%chk=/home/boittier/MDCM/nms_sampling/acrolein_geom.xyz.dir/acrolein_1378.chk
%nproc=8
%mem=16000MB
#p B2PLYPD3/Def2QZVP 

acrolein

0 1
C  -4.992386  -1.381651   0.913404
O  -3.924690  -0.877795   0.651098
C  -5.202804  -2.804272   1.136205
C  -6.407838  -3.309425   1.393541
H  -4.387740  -3.435270   1.138917
H  -7.264970  -2.635094   1.371734
H  -6.637453  -4.441131   1.678039
H  -5.953424  -0.800360   0.936119

