%chk=/home/boittier/MDCM/nms_sampling/acrolein_geom.xyz.dir/acrolein_1565.chk
%nproc=8
%mem=16000MB
#p B2PLYPD3/Def2QZVP 

acrolein

0 1
C  -4.999801  -1.410226   0.916367
O  -3.938213  -0.849810   0.636614
C  -5.182273  -2.832827   1.143941
C  -6.409917  -3.293005   1.392446
H  -4.311191  -3.486915   1.260200
H  -7.347383  -2.654965   1.327927
H  -6.599177  -4.366369   1.566123
H  -5.915802  -0.780014   1.071495
