%chk=/home/boittier/MDCM/nms_sampling/acrolein_geom.xyz.dir/acrolein_1622.chk
%nproc=8
%mem=16000MB
#p B2PLYPD3/Def2QZVP 

acrolein

0 1
C  -5.025825  -1.356085   0.951910
O  -3.936283  -0.885789   0.619613
C  -5.192678  -2.807114   1.163204
C  -6.382849  -3.329609   1.364315
H  -4.297514  -3.442183   1.200818
H  -7.263759  -2.643124   1.355109
H  -6.569147  -4.383021   1.638157
H  -5.937642  -0.751025   0.991412

