%chk=/home/boittier/MDCM/nms_sampling/acrolein_geom.xyz.dir/acrolein_404.chk
%nproc=8
%mem=16000MB
#p B2PLYPD3/Def2QZVP 

acrolein

0 1
C  -5.004914  -1.369967   0.882687
O  -3.930995  -0.879369   0.670351
C  -5.200635  -2.812818   1.118754
C  -6.403480  -3.318406   1.417221
H  -4.357736  -3.419869   1.153445
H  -7.228531  -2.668932   1.401103
H  -6.534087  -4.350151   1.625129
H  -5.946651  -0.776252   0.927992
