%chk=/home/boittier/MDCM/nms_sampling/acrolein_geom.xyz.dir/acrolein_1165.chk
%nproc=8
%mem=16000MB
#p B2PLYPD3/Def2QZVP 

acrolein

0 1
C  -5.002456  -1.371592   0.896214
O  -3.926910  -0.887012   0.665840
C  -5.207412  -2.793137   1.139171
C  -6.407092  -3.318702   1.402829
H  -4.320811  -3.402779   1.055616
H  -7.229578  -2.664391   1.485026
H  -6.590064  -4.458222   1.614199
H  -5.900833  -0.790208   0.800313
