%chk=/home/boittier/MDCM/nms_sampling/acrolein_geom.xyz.dir/acrolein_2043.chk
%nproc=8
%mem=16000MB
#p B2PLYPD3/Def2QZVP 

acrolein

0 1
C  -4.993999  -1.407058   0.919737
O  -3.927044  -0.859681   0.622404
C  -5.207556  -2.837524   1.219821
C  -6.417130  -3.283434   1.365566
H  -4.373421  -3.467819   1.019594
H  -7.252208  -2.560958   1.412257
H  -6.630772  -4.383398   1.420453
H  -5.760368  -0.797075   0.992544
