%chk=/home/boittier/MDCM/nms_sampling/acrolein_geom.xyz.dir/acrolein_2426.chk
%nproc=8
%mem=16000MB
#p B2PLYPD3/Def2QZVP 

acrolein

0 1
C  -5.005692  -1.416919   0.802641
O  -3.950633  -0.837628   0.711640
C  -5.176673  -2.866079   1.137087
C  -6.420076  -3.280325   1.437294
H  -4.156542  -3.471373   0.997717
H  -7.363903  -2.585777   1.637125
H  -6.595805  -4.333903   1.471696
H  -5.732939  -0.787067   0.842333
