%chk=/home/boittier/MDCM/nms_sampling/acrolein_geom.xyz.dir/acrolein_1008.chk
%nproc=8
%mem=16000MB
#p B2PLYPD3/Def2QZVP 

acrolein

0 1
C  -5.009002  -1.368003   0.848689
O  -3.929666  -0.886117   0.693506
C  -5.201257  -2.810173   1.125224
C  -6.403041  -3.306364   1.434211
H  -4.324960  -3.411230   1.004936
H  -7.191222  -2.694047   1.471910
H  -6.621704  -4.455363   1.575306
H  -5.896451  -0.749989   0.825712
