%chk=/home/boittier/MDCM/nms_sampling/acrolein_geom.xyz.dir/acrolein_9.chk
%nproc=8
%mem=16000MB
#p B2PLYPD3/Def2QZVP 

acrolein

0 1
C  -5.008169  -1.379608   0.877510
O  -3.940016  -0.874535   0.675375
C  -5.183044  -2.810370   1.115385
C  -6.403305  -3.309986   1.422742
H  -4.313201  -3.446112   1.134997
H  -7.221095  -2.656161   1.409120
H  -6.600819  -4.439580   1.620181
H  -5.958685  -0.767554   0.901861
