%chk=/home/boittier/MDCM/nms_sampling/acrolein_geom.xyz.dir/acrolein_2124.chk
%nproc=8
%mem=16000MB
#p B2PLYPD3/Def2QZVP 

acrolein

0 1
C  -5.006090  -1.383928   0.815070
O  -3.928014  -0.867082   0.728036
C  -5.193152  -2.844566   1.105253
C  -6.416369  -3.285052   1.474917
H  -4.320369  -3.512535   0.830492
H  -7.259457  -2.628428   1.483484
H  -6.687605  -4.378951   1.552674
H  -5.772027  -0.750716   0.638946
