%chk=/home/boittier/MDCM/nms_sampling/acrolein_geom.xyz.dir/acrolein_632.chk
%nproc=8
%mem=16000MB
#p B2PLYPD3/Def2QZVP 

acrolein

0 1
C  -5.000478  -1.396082   0.885494
O  -3.942185  -0.858534   0.666791
C  -5.195945  -2.828352   1.138290
C  -6.408233  -3.304005   1.400142
H  -4.236817  -3.443062   1.081698
H  -7.261195  -2.661579   1.428455
H  -6.558782  -4.331858   1.671281
H  -5.897470  -0.812547   0.924818

