%chk=/home/boittier/MDCM/nms_sampling/acrolein_geom.xyz.dir/acrolein_2400.chk
%nproc=8
%mem=16000MB
#p B2PLYPD3/Def2QZVP 

acrolein

0 1
C  -5.027900  -1.381968   0.816357
O  -3.930942  -0.879655   0.726749
C  -5.198304  -2.791145   1.102642
C  -6.388440  -3.313237   1.457140
H  -4.248488  -3.473793   0.848009
H  -7.080490  -2.710388   1.462992
H  -6.615733  -4.496532   1.710281
H  -6.051399  -0.710241   0.729080
