%chk=/home/boittier/MDCM/nms_sampling/acrolein_geom.xyz.dir/acrolein_1478.chk
%nproc=8
%mem=16000MB
#p B2PLYPD3/Def2QZVP 

acrolein

0 1
C  -5.014781  -1.362668   0.853058
O  -3.924099  -0.883692   0.688986
C  -5.200905  -2.816179   1.137472
C  -6.406958  -3.318380   1.431317
H  -4.338691  -3.414582   0.958229
H  -7.188769  -2.700285   1.441340
H  -6.553932  -4.343719   1.562456
H  -5.929679  -0.736321   0.829726
