%chk=/home/boittier/MDCM/nms_sampling/acrolein_geom.xyz.dir/acrolein_596.chk
%nproc=8
%mem=16000MB
#p B2PLYPD3/Def2QZVP 

acrolein

0 1
C  -5.008133  -1.393287   0.922120
O  -3.936549  -0.866819   0.638649
C  -5.193728  -2.808507   1.153540
C  -6.397141  -3.312517   1.390431
H  -4.320015  -3.443992   1.153109
H  -7.226911  -2.654355   1.351514
H  -6.580812  -4.381736   1.576417
H  -5.972695  -0.788007   0.966030

