%chk=/home/boittier/MDCM/nms_sampling/acrolein_geom.xyz.dir/acrolein_201.chk
%nproc=8
%mem=16000MB
#p B2PLYPD3/Def2QZVP 

acrolein

0 1
C  -4.997066  -1.404379   0.879487
O  -3.941324  -0.856366   0.675226
C  -5.184044  -2.829068   1.121631
C  -6.411449  -3.298121   1.418778
H  -4.318195  -3.433633   1.091544
H  -7.269535  -2.655657   1.415526
H  -6.601317  -4.354749   1.637108
H  -5.916639  -0.790607   0.878093

