%chk=/home/boittier/MDCM/nms_sampling/acrolein_geom.xyz.dir/acrolein_773.chk
%nproc=8
%mem=16000MB
#p B2PLYPD3/Def2QZVP 

acrolein

0 1
C  -5.006347  -1.381573   0.872079
O  -3.928971  -0.872545   0.679175
C  -5.195812  -2.813328   1.129588
C  -6.407552  -3.310918   1.413213
H  -4.341145  -3.450997   1.053507
H  -7.223788  -2.662407   1.475663
H  -6.569777  -4.384873   1.640023
H  -5.959122  -0.771847   0.850764
