%chk=/home/boittier/MDCM/nms_sampling/acrolein_geom.xyz.dir/acrolein_685.chk
%nproc=8
%mem=16000MB
#p B2PLYPD3/Def2QZVP 

acrolein

0 1
C  -5.009554  -1.370046   0.893843
O  -3.928470  -0.874411   0.662025
C  -5.196890  -2.822668   1.139948
C  -6.406442  -3.316528   1.400325
H  -4.328727  -3.451304   1.110065
H  -7.249273  -2.647226   1.468859
H  -6.556841  -4.326164   1.602396
H  -5.927750  -0.777766   0.876021
