%chk=/home/boittier/MDCM/nms_sampling/acrolein_geom.xyz.dir/acrolein_1753.chk
%nproc=8
%mem=16000MB
#p B2PLYPD3/Def2QZVP 

acrolein

0 1
C  -5.013732  -1.371857   0.911687
O  -3.942381  -0.883304   0.642870
C  -5.191492  -2.792553   1.180698
C  -6.388943  -3.334689   1.375253
H  -4.313637  -3.429205   1.037902
H  -7.246316  -2.645881   1.473452
H  -6.559208  -4.366957   1.562699
H  -5.940017  -0.744694   0.892766
