%chk=/home/boittier/MDCM/nms_sampling/acrolein_geom.xyz.dir/acrolein_1971.chk
%nproc=8
%mem=16000MB
#p B2PLYPD3/Def2QZVP 

acrolein

0 1
C  -4.974287  -1.420291   0.920177
O  -3.907425  -0.847358   0.624873
C  -5.214434  -2.839086   1.223915
C  -6.434645  -3.285042   1.382639
H  -4.403265  -3.419123   0.924182
H  -7.247862  -2.646459   1.328867
H  -6.660457  -4.312564   1.367902
H  -5.977466  -0.845830   0.942558
