%chk=/home/boittier/MDCM/nms_sampling/acrolein_geom.xyz.dir/acrolein_338.chk
%nproc=8
%mem=16000MB
#p B2PLYPD3/Def2QZVP 

acrolein

0 1
C  -5.005559  -1.392670   0.911180
O  -3.939183  -0.857792   0.638435
C  -5.190682  -2.827960   1.168648
C  -6.404100  -3.308626   1.387768
H  -4.283697  -3.466120   1.157053
H  -7.314373  -2.672481   1.430197
H  -6.536575  -4.300329   1.475050
H  -5.921377  -0.807000   0.964163

