%chk=/home/boittier/MDCM/nms_sampling/acrolein_geom.xyz.dir/acrolein_2105.chk
%nproc=8
%mem=16000MB
#p B2PLYPD3/Def2QZVP 

acrolein

0 1
C  -4.993020  -1.411383   0.857526
O  -3.956299  -0.838586   0.696554
C  -5.164117  -2.834151   1.078351
C  -6.406935  -3.306805   1.444755
H  -4.297270  -3.510533   1.192119
H  -7.520362  -2.641320   1.462252
H  -6.492163  -4.277207   1.645041
H  -5.924344  -0.855980   0.842285

