%chk=/home/boittier/MDCM/nms_sampling/acrolein_geom.xyz.dir/acrolein_1174.chk
%nproc=8
%mem=16000MB
#p B2PLYPD3/Def2QZVP 

acrolein

0 1
C  -4.991135  -1.416438   0.931378
O  -3.941569  -0.848090   0.629154
C  -5.183023  -2.831022   1.155842
C  -6.417462  -3.290165   1.374497
H  -4.336725  -3.478308   1.237824
H  -7.260640  -2.672242   1.391288
H  -6.581482  -4.340246   1.592301
H  -5.941453  -0.799132   1.016625
