%chk=/home/boittier/MDCM/nms_sampling/acrolein_geom.xyz.dir/acrolein_1949.chk
%nproc=8
%mem=16000MB
#p B2PLYPD3/Def2QZVP 

acrolein

0 1
C  -4.973060  -1.419745   0.932798
O  -3.928155  -0.849865   0.622847
C  -5.210265  -2.835592   1.184741
C  -6.436908  -3.294151   1.380944
H  -4.234332  -3.413279   1.061369
H  -7.418905  -2.623936   1.189858
H  -6.611027  -4.327021   1.586036
H  -5.751742  -0.795620   1.087226

