%chk=/home/boittier/MDCM/nms_sampling/acrolein_geom.xyz.dir/acrolein_703.chk
%nproc=8
%mem=16000MB
#p B2PLYPD3/Def2QZVP 

acrolein

0 1
C  -5.001253  -1.382048   0.916707
O  -3.931691  -0.865256   0.637608
C  -5.196055  -2.835049   1.163973
C  -6.412406  -3.303362   1.378079
H  -4.293155  -3.446314   1.143518
H  -7.291631  -2.656907   1.374842
H  -6.557492  -4.347381   1.613820
H  -5.916671  -0.772190   1.016009

