%chk=/home/boittier/MDCM/nms_sampling/acrolein_geom.xyz.dir/acrolein_28.chk
%nproc=8
%mem=16000MB
#p B2PLYPD3/Def2QZVP 

acrolein

0 1
C  -5.001894  -1.378795   0.907570
O  -3.929684  -0.870810   0.650484
C  -5.198725  -2.823766   1.141517
C  -6.409055  -3.306542   1.391193
H  -4.308184  -3.449726   1.157342
H  -7.231651  -2.639401   1.396748
H  -6.596215  -4.383775   1.646294
H  -5.947454  -0.790893   0.963647
