%chk=/home/boittier/MDCM/nms_sampling/acrolein_geom.xyz.dir/acrolein_915.chk
%nproc=8
%mem=16000MB
#p B2PLYPD3/Def2QZVP 

acrolein

0 1
C  -4.992404  -1.396936   0.863156
O  -3.925208  -0.849013   0.691394
C  -5.189101  -2.851584   1.114272
C  -6.433505  -3.285975   1.436648
H  -4.286620  -3.498352   1.025586
H  -7.295274  -2.653727   1.479915
H  -6.582495  -4.341681   1.581689
H  -5.944079  -0.820906   0.754509
