%chk=/home/boittier/MDCM/nms_sampling/acrolein_geom.xyz.dir/acrolein_398.chk
%nproc=8
%mem=16000MB
#p B2PLYPD3/Def2QZVP 

acrolein

0 1
C  -5.016457  -1.374146   0.872129
O  -3.939307  -0.873635   0.679069
C  -5.190626  -2.811894   1.112429
C  -6.395947  -3.321061   1.423081
H  -4.280438  -3.431038   1.137602
H  -7.237832  -2.686139   1.426920
H  -6.545190  -4.343991   1.634597
H  -5.944682  -0.790508   0.902400
