%chk=/home/boittier/MDCM/nms_sampling/acrolein_geom.xyz.dir/acrolein_2695.chk
%nproc=8
%mem=16000MB
#p B2PLYPD3/Def2QZVP 

acrolein

0 1
C  -5.018098  -1.346773   0.796502
O  -3.929250  -0.903029   0.729509
C  -5.198529  -2.784496   1.088966
C  -6.386912  -3.340678   1.463071
H  -4.415761  -3.380878   1.038064
H  -7.273094  -2.747113   1.558073
H  -6.529383  -4.372295   1.595548
H  -5.939145  -0.685137   0.816633

