%chk=/home/boittier/MDCM/nms_sampling/acrolein_geom.xyz.dir/acrolein_1911.chk
%nproc=8
%mem=16000MB
#p B2PLYPD3/Def2QZVP 

acrolein

0 1
C  -4.999121  -1.385159   0.970052
O  -3.925826  -0.847180   0.600982
C  -5.175054  -2.869665   1.209942
C  -6.430270  -3.294616   1.374801
H  -4.291925  -3.516593   1.080590
H  -7.528690  -2.604271   1.348916
H  -6.513920  -4.309450   1.310143
H  -5.900351  -0.734777   0.858100

