%chk=/home/boittier/MDCM/nms_sampling/acrolein_geom.xyz.dir/acrolein_355.chk
%nproc=8
%mem=16000MB
#p B2PLYPD3/Def2QZVP 

acrolein

0 1
C  -5.006353  -1.385053   0.906609
O  -3.940045  -0.872949   0.648032
C  -5.191901  -2.809321   1.154428
C  -6.395173  -3.307775   1.384860
H  -4.326770  -3.416344   1.117904
H  -7.233729  -2.681816   1.393866
H  -6.602168  -4.422438   1.646537
H  -5.946945  -0.795818   0.980432
