%chk=/home/boittier/MDCM/nms_sampling/acrolein_geom.xyz.dir/acrolein_2173.chk
%nproc=8
%mem=16000MB
#p B2PLYPD3/Def2QZVP 

acrolein

0 1
C  -5.020892  -1.336197   0.844490
O  -3.912312  -0.903250   0.701637
C  -5.204384  -2.792191   1.113265
C  -6.391794  -3.345652   1.444656
H  -4.303041  -3.372822   0.922586
H  -7.334056  -2.704341   1.318862
H  -6.625629  -4.426655   1.715938
H  -6.009973  -0.673574   0.874899

