%chk=/home/boittier/MDCM/nms_sampling/acrolein_geom.xyz.dir/acrolein_1481.chk
%nproc=8
%mem=16000MB
#p B2PLYPD3/Def2QZVP 

acrolein

0 1
C  -5.004649  -1.378745   0.854671
O  -3.928178  -0.872561   0.686863
C  -5.199213  -2.818932   1.109827
C  -6.418952  -3.311233   1.421118
H  -4.277493  -3.423608   1.132521
H  -7.185295  -2.665580   1.412715
H  -6.565525  -4.365018   1.709079
H  -5.921973  -0.789104   0.983852

