%chk=/home/boittier/MDCM/nms_sampling/acrolein_geom.xyz.dir/acrolein_700.chk
%nproc=8
%mem=16000MB
#p B2PLYPD3/Def2QZVP 

acrolein

0 1
C  -5.002990  -1.392625   0.899345
O  -3.941718  -0.857354   0.647774
C  -5.182132  -2.838128   1.153230
C  -6.407771  -3.300626   1.394276
H  -4.297911  -3.454059   1.159570
H  -7.320735  -2.649383   1.373387
H  -6.556789  -4.342837   1.570464
H  -5.923157  -0.772477   1.023264
