%chk=/home/boittier/MDCM/nms_sampling/acrolein_geom.xyz.dir/acrolein_893.chk
%nproc=8
%mem=16000MB
#p B2PLYPD3/Def2QZVP 

acrolein

0 1
C  -4.995978  -1.389586   0.916994
O  -3.934778  -0.863154   0.638696
C  -5.189408  -2.827474   1.161798
C  -6.422202  -3.304141   1.380887
H  -4.275049  -3.440033   1.166967
H  -7.304543  -2.651901   1.439826
H  -6.576871  -4.366060   1.552976
H  -5.881666  -0.797618   0.956406
