%chk=/home/boittier/MDCM/nms_sampling/acrolein_geom.xyz.dir/acrolein_2203.chk
%nproc=8
%mem=16000MB
#p B2PLYPD3/Def2QZVP 

acrolein

0 1
C  -5.028728  -1.360850   0.841370
O  -3.944225  -0.887179   0.690111
C  -5.180804  -2.768849   1.153948
C  -6.373689  -3.360722   1.398821
H  -4.276312  -3.413677   1.012907
H  -7.210004  -2.655304   1.699338
H  -6.531932  -4.383898   1.564937
H  -6.134926  -0.776834   0.806783

