%chk=/home/boittier/MDCM/nms_sampling/acrolein_geom.xyz.dir/acrolein_2335.chk
%nproc=8
%mem=16000MB
#p B2PLYPD3/Def2QZVP 

acrolein

0 1
C  -5.021261  -1.369927   0.940736
O  -3.919851  -0.881140   0.615724
C  -5.205912  -2.801420   1.182068
C  -6.389115  -3.324289   1.381282
H  -4.320272  -3.373910   1.228837
H  -7.142001  -2.633877   1.418010
H  -6.591866  -4.447065   1.343548
H  -6.089274  -0.797359   0.956134
