%chk=/home/boittier/MDCM/nms_sampling/acrolein_geom.xyz.dir/acrolein_701.chk
%nproc=8
%mem=16000MB
#p B2PLYPD3/Def2QZVP 

acrolein

0 1
C  -5.004501  -1.394374   0.900562
O  -3.938989  -0.857082   0.654046
C  -5.187405  -2.830774   1.135229
C  -6.403705  -3.304122   1.402202
H  -4.296457  -3.469499   1.179537
H  -7.272503  -2.652957   1.387321
H  -6.573715  -4.329785   1.598111
H  -5.965567  -0.796768   0.967910

