%chk=/home/boittier/MDCM/nms_sampling/acrolein_geom.xyz.dir/acrolein_82.chk
%nproc=8
%mem=16000MB
#p B2PLYPD3/Def2QZVP 

acrolein

0 1
C  -5.016348  -1.372785   0.873951
O  -3.939633  -0.875800   0.668623
C  -5.184397  -2.808669   1.142363
C  -6.393951  -3.321821   1.408962
H  -4.295596  -3.441278   1.103041
H  -7.266021  -2.666430   1.449811
H  -6.555077  -4.397199   1.566221
H  -5.984316  -0.749868   0.937427
