%chk=/home/boittier/MDCM/nms_sampling/acrolein_geom.xyz.dir/acrolein_2305.chk
%nproc=8
%mem=16000MB
#p B2PLYPD3/Def2QZVP 

acrolein

0 1
C  -4.986663  -1.408189   0.947378
O  -3.945600  -0.846552   0.610873
C  -5.187954  -2.861142   1.148243
C  -6.435420  -3.281319   1.382183
H  -4.232140  -3.449430   1.385364
H  -7.153237  -2.624884   1.230350
H  -6.540071  -4.313742   1.527881
H  -5.901267  -0.767694   1.182690
