%chk=/home/boittier/MDCM/nms_sampling/acrolein_geom.xyz.dir/acrolein_590.chk
%nproc=8
%mem=16000MB
#p B2PLYPD3/Def2QZVP 

acrolein

0 1
C  -5.012753  -1.372013   0.897706
O  -3.942293  -0.875566   0.648152
C  -5.190022  -2.816216   1.166501
C  -6.392292  -3.314790   1.392459
H  -4.326916  -3.428486   1.108470
H  -7.229223  -2.687039   1.433343
H  -6.549168  -4.356555   1.508064
H  -5.945872  -0.787298   0.956957
