%chk=/home/boittier/MDCM/nms_sampling/acrolein_geom.xyz.dir/acrolein_1986.chk
%nproc=8
%mem=16000MB
#p B2PLYPD3/Def2QZVP 

acrolein

0 1
C  -5.006724  -1.388757   0.881843
O  -3.938914  -0.886361   0.683138
C  -5.194447  -2.746514   1.115165
C  -6.392137  -3.338877   1.437878
H  -4.297157  -3.389242   1.026435
H  -7.129743  -2.745927   1.459831
H  -6.625302  -4.488568   1.543311
H  -6.078253  -0.826426   0.698862

