%chk=/home/boittier/MDCM/nms_sampling/acrolein_geom.xyz.dir/acrolein_688.chk
%nproc=8
%mem=16000MB
#p B2PLYPD3/Def2QZVP 

acrolein

0 1
C  -5.001746  -1.379244   0.867140
O  -3.935409  -0.863253   0.676773
C  -5.187820  -2.842508   1.126252
C  -6.410887  -3.300936   1.417732
H  -4.321457  -3.471533   1.113103
H  -7.318396  -2.643240   1.426140
H  -6.577148  -4.318614   1.615883
H  -5.890593  -0.791524   0.941434

