%chk=/home/boittier/MDCM/nms_sampling/acrolein_geom.xyz.dir/acrolein_1786.chk
%nproc=8
%mem=16000MB
#p B2PLYPD3/Def2QZVP 

acrolein

0 1
C  -5.012111  -1.357187   0.915396
O  -3.921469  -0.887359   0.627660
C  -5.201927  -2.811841   1.178063
C  -6.397664  -3.315966   1.372808
H  -4.355435  -3.422096   1.194891
H  -7.212014  -2.705027   1.351533
H  -6.586541  -4.424658   1.542687
H  -6.031245  -0.724382   1.119332

