%chk=/home/boittier/MDCM/nms_sampling/acrolein_geom.xyz.dir/acrolein_267.chk
%nproc=8
%mem=16000MB
#p B2PLYPD3/Def2QZVP 

acrolein

0 1
C  -4.997798  -1.386330   0.901263
O  -3.937820  -0.863769   0.643568
C  -5.188716  -2.834538   1.165834
C  -6.409706  -3.304015   1.390600
H  -4.347269  -3.460478   1.145853
H  -7.322325  -2.649868   1.406170
H  -6.567629  -4.309553   1.508328
H  -5.883244  -0.770113   1.003417
