%chk=/home/boittier/MDCM/nms_sampling/acrolein_geom.xyz.dir/acrolein_1234.chk
%nproc=8
%mem=16000MB
#p B2PLYPD3/Def2QZVP 

acrolein

0 1
C  -5.011128  -1.358651   0.881224
O  -3.926348  -0.883302   0.675139
C  -5.199428  -2.813838   1.135005
C  -6.407878  -3.322102   1.406445
H  -4.294881  -3.463611   1.055302
H  -7.299193  -2.662337   1.541612
H  -6.542621  -4.373137   1.608095
H  -5.901714  -0.740664   0.784708
