%chk=/home/boittier/MDCM/nms_sampling/acrolein_geom.xyz.dir/acrolein_2290.chk
%nproc=8
%mem=16000MB
#p B2PLYPD3/Def2QZVP 

acrolein

0 1
C  -5.000971  -1.395532   0.859235
O  -3.928107  -0.850243   0.701119
C  -5.189610  -2.860962   1.091456
C  -6.429361  -3.299596   1.423136
H  -4.237580  -3.433536   1.006491
H  -7.322058  -2.672206   1.381573
H  -6.593353  -4.210039   1.912175
H  -5.847098  -0.744124   0.871427

