%chk=/home/boittier/MDCM/nms_sampling/acrolein_geom.xyz.dir/acrolein_680.chk
%nproc=8
%mem=16000MB
#p B2PLYPD3/Def2QZVP 

acrolein

0 1
C  -4.993333  -1.398176   0.910109
O  -3.934511  -0.858451   0.640707
C  -5.197135  -2.832083   1.166071
C  -6.417681  -3.297408   1.383049
H  -4.320020  -3.441959   1.155203
H  -7.255260  -2.673367   1.451266
H  -6.563295  -4.318328   1.522279
H  -5.895560  -0.814236   0.960651

