%chk=/home/boittier/MDCM/nms_sampling/acrolein_geom.xyz.dir/acrolein_751.chk
%nproc=8
%mem=16000MB
#p B2PLYPD3/Def2QZVP 

acrolein

0 1
C  -5.003119  -1.382926   0.873542
O  -3.927423  -0.870645   0.674427
C  -5.196521  -2.817574   1.122828
C  -6.412551  -3.309896   1.408396
H  -4.308104  -3.456532   1.138933
H  -7.237528  -2.668175   1.443908
H  -6.605588  -4.367009   1.674693
H  -5.942352  -0.764366   0.948811

