%chk=/home/boittier/MDCM/nms_sampling/acrolein_geom.xyz.dir/acrolein_743.chk
%nproc=8
%mem=16000MB
#p B2PLYPD3/Def2QZVP 

acrolein

0 1
C  -5.000694  -1.379626   0.878830
O  -3.930518  -0.863961   0.672997
C  -5.192860  -2.839332   1.136307
C  -6.409910  -3.305207   1.410330
H  -4.310046  -3.451687   1.071375
H  -7.310635  -2.659572   1.495984
H  -6.577023  -4.319921   1.584504
H  -5.954138  -0.767860   0.837474
