%chk=/home/boittier/MDCM/nms_sampling/acrolein_geom.xyz.dir/acrolein_55.chk
%nproc=8
%mem=16000MB
#p B2PLYPD3/Def2QZVP 

acrolein

0 1
C  -5.002445  -1.394959   0.859198
O  -3.934188  -0.857330   0.680195
C  -5.191899  -2.834482   1.134800
C  -6.410227  -3.300413   1.419387
H  -4.279757  -3.472545   1.077525
H  -7.258979  -2.642675   1.475530
H  -6.592518  -4.341736   1.560905
H  -5.947491  -0.782030   0.902550
