%chk=/home/boittier/MDCM/nms_sampling/acrolein_geom.xyz.dir/acrolein_305.chk
%nproc=8
%mem=16000MB
#p B2PLYPD3/Def2QZVP 

acrolein

0 1
C  -5.010478  -1.382535   0.873708
O  -3.937201  -0.870990   0.670604
C  -5.196607  -2.815386   1.130155
C  -6.401106  -3.307366   1.412066
H  -4.285805  -3.459704   1.129738
H  -7.191531  -2.677383   1.401091
H  -6.575355  -4.382306   1.626463
H  -5.928121  -0.790350   0.978518

