%chk=/home/boittier/MDCM/nms_sampling/acrolein_geom.xyz.dir/acrolein_1185.chk
%nproc=8
%mem=16000MB
#p B2PLYPD3/Def2QZVP 

acrolein

0 1
C  -5.013011  -1.391521   0.849590
O  -3.939729  -0.875660   0.691114
C  -5.194999  -2.789747   1.130692
C  -6.398384  -3.325769   1.416591
H  -4.278906  -3.385511   1.045045
H  -7.180346  -2.674951   1.580048
H  -6.546045  -4.405467   1.595567
H  -5.952126  -0.754290   0.819406

