%chk=/home/boittier/MDCM/nms_sampling/acrolein_geom.xyz.dir/acrolein_2460.chk
%nproc=8
%mem=16000MB
#p B2PLYPD3/Def2QZVP 

acrolein

0 1
C  -4.993334  -1.397904   0.923753
O  -3.928876  -0.847039   0.627718
C  -5.180125  -2.856126   1.188361
C  -6.410657  -3.292238   1.357184
H  -4.464792  -3.474960   1.202726
H  -7.448163  -2.564332   1.630034
H  -6.553509  -4.304361   1.436060
H  -5.940919  -0.839882   0.893957

