%chk=/home/boittier/MDCM/nms_sampling/acrolein_geom.xyz.dir/acrolein_2341.chk
%nproc=8
%mem=16000MB
#p B2PLYPD3/Def2QZVP 

acrolein

0 1
C  -5.014838  -1.407751   0.846542
O  -3.953463  -0.840818   0.707705
C  -5.157793  -2.843597   1.082519
C  -6.406671  -3.311942   1.425804
H  -4.223360  -3.447369   1.049886
H  -7.299824  -2.614708   1.413414
H  -6.536563  -4.272164   1.921728
H  -6.005839  -0.776598   0.900965

