%chk=/home/boittier/MDCM/nms_sampling/acrolein_geom.xyz.dir/acrolein_1037.chk
%nproc=8
%mem=16000MB
#p B2PLYPD3/Def2QZVP 

acrolein

0 1
C  -5.008526  -1.392924   0.861311
O  -3.939845  -0.868953   0.692318
C  -5.200557  -2.809144   1.090634
C  -6.396132  -3.314104   1.426805
H  -4.241986  -3.424090   1.169629
H  -7.219624  -2.676941   1.493622
H  -6.600887  -4.366813   1.705299
H  -5.915608  -0.762190   0.862230

