%chk=/home/boittier/MDCM/nms_sampling/acrolein_geom.xyz.dir/acrolein_1221.chk
%nproc=8
%mem=16000MB
#p B2PLYPD3/Def2QZVP 

acrolein

0 1
C  -5.002767  -1.367977   0.932760
O  -3.918264  -0.886632   0.621169
C  -5.206766  -2.793434   1.183531
C  -6.414103  -3.326146   1.382894
H  -4.266659  -3.415783   1.164519
H  -7.202052  -2.703101   1.363566
H  -6.623921  -4.431814   1.410703
H  -6.012094  -0.730039   0.987568

