%chk=/home/boittier/MDCM/nms_sampling/acrolein_geom.xyz.dir/acrolein_788.chk
%nproc=8
%mem=16000MB
#p B2PLYPD3/Def2QZVP 

acrolein

0 1
C  -4.996812  -1.395908   0.878721
O  -3.930636  -0.856692   0.666420
C  -5.190411  -2.836522   1.133287
C  -6.420170  -3.297957   1.408707
H  -4.303591  -3.472715   1.140612
H  -7.280751  -2.662690   1.397272
H  -6.580758  -4.333233   1.618926
H  -5.941649  -0.772555   0.987292
