%chk=/home/boittier/MDCM/nms_sampling/acrolein_geom.xyz.dir/acrolein_2137.chk
%nproc=8
%mem=16000MB
#p B2PLYPD3/Def2QZVP 

acrolein

0 1
C  -5.030193  -1.348941   0.968721
O  -3.963106  -0.894408   0.600357
C  -5.167314  -2.800331   1.217298
C  -6.363243  -3.324717   1.340586
H  -4.439767  -3.379414   1.103801
H  -7.195435  -2.665185   1.475362
H  -6.514990  -4.439502   1.460107
H  -5.946841  -0.789003   0.893645

