%chk=/home/boittier/MDCM/nms_sampling/acrolein_geom.xyz.dir/acrolein_615.chk
%nproc=8
%mem=16000MB
#p B2PLYPD3/Def2QZVP 

acrolein

0 1
C  -5.011993  -1.364475   0.879336
O  -3.928693  -0.880288   0.667050
C  -5.194666  -2.815922   1.149453
C  -6.402264  -3.317313   1.409812
H  -4.332843  -3.427581   1.046333
H  -7.255356  -2.674825   1.432478
H  -6.584764  -4.369792   1.554745
H  -5.932011  -0.776844   0.896878

