%chk=/home/boittier/MDCM/nms_sampling/acrolein_geom.xyz.dir/acrolein_1019.chk
%nproc=8
%mem=16000MB
#p B2PLYPD3/Def2QZVP 

acrolein

0 1
C  -5.001417  -1.389777   0.935696
O  -3.938869  -0.854870   0.618462
C  -5.186147  -2.848257   1.193548
C  -6.414443  -3.297797   1.359175
H  -4.361970  -3.481650   1.175529
H  -7.316130  -2.636439   1.483571
H  -6.492790  -4.259815   1.462773
H  -5.863550  -0.815080   0.968418
