%chk=/home/boittier/MDCM/nms_sampling/acrolein_geom.xyz.dir/acrolein_1119.chk
%nproc=8
%mem=16000MB
#p B2PLYPD3/Def2QZVP 

acrolein

0 1
C  -5.002946  -1.412593   0.899791
O  -3.942504  -0.849719   0.636945
C  -5.181347  -2.823160   1.181517
C  -6.404309  -3.300457   1.384157
H  -4.265527  -3.475317   1.151716
H  -7.323280  -2.655213   1.405795
H  -6.625388  -4.364111   1.457936
H  -5.929684  -0.804974   1.057519

