%chk=/home/boittier/MDCM/nms_sampling/acrolein_geom.xyz.dir/acrolein_1261.chk
%nproc=8
%mem=16000MB
#p B2PLYPD3/Def2QZVP 

acrolein

0 1
C  -5.007358  -1.396675   0.914702
O  -3.940843  -0.846200   0.633719
C  -5.183180  -2.858384   1.179739
C  -6.404209  -3.292417   1.386163
H  -4.286876  -3.457712   1.141436
H  -7.286953  -2.626780   1.440102
H  -6.546152  -4.296331   1.416489
H  -5.965537  -0.821225   0.949281
