%chk=/home/boittier/MDCM/nms_sampling/acrolein_geom.xyz.dir/acrolein_2509.chk
%nproc=8
%mem=16000MB
#p B2PLYPD3/Def2QZVP 

acrolein

0 1
C  -5.016981  -1.390520   0.975815
O  -3.949337  -0.842741   0.598818
C  -5.180192  -2.891018   1.205714
C  -6.400209  -3.278129   1.346629
H  -4.287469  -3.476365   1.124574
H  -7.319562  -2.676918   1.398134
H  -6.485495  -4.196244   1.498965
H  -5.827955  -0.760663   0.919472
