%chk=/home/boittier/MDCM/nms_sampling/acrolein_geom.xyz.dir/acrolein_1363.chk
%nproc=8
%mem=16000MB
#p B2PLYPD3/Def2QZVP 

acrolein

0 1
C  -5.014336  -1.360535   0.909979
O  -3.925310  -0.883899   0.634668
C  -5.185689  -2.806921   1.194055
C  -6.405225  -3.333265   1.383743
H  -4.328664  -3.398996   1.049343
H  -7.316565  -2.649473   1.395808
H  -6.580386  -4.382180   1.442727
H  -5.976248  -0.726734   0.968741
