%chk=/home/boittier/MDCM/nms_sampling/acrolein_geom.xyz.dir/acrolein_2318.chk
%nproc=8
%mem=16000MB
#p B2PLYPD3/Def2QZVP 

acrolein

0 1
C  -5.018348  -1.339254   0.902100
O  -3.915325  -0.907779   0.664551
C  -5.204727  -2.783631   1.136103
C  -6.391974  -3.341825   1.396519
H  -4.499159  -3.339363   1.065129
H  -7.222036  -2.644450   1.497192
H  -6.556498  -4.413172   1.661837
H  -5.944436  -0.779345   0.792220
