%chk=/home/boittier/MDCM/nms_sampling/acrolein_geom.xyz.dir/acrolein_1531.chk
%nproc=8
%mem=16000MB
#p B2PLYPD3/Def2QZVP 

acrolein

0 1
C  -4.995592  -1.404742   0.855871
O  -3.950148  -0.847431   0.693007
C  -5.177573  -2.846136   1.111729
C  -6.401773  -3.295976   1.435715
H  -4.320252  -3.444965   1.027594
H  -7.369267  -2.612018   1.408019
H  -6.562688  -4.320145   1.654954
H  -5.926046  -0.817220   0.853998

