%chk=/home/boittier/MDCM/nms_sampling/acrolein_geom.xyz.dir/acrolein_2602.chk
%nproc=8
%mem=16000MB
#p B2PLYPD3/Def2QZVP 

acrolein

0 1
C  -5.040840  -1.334484   0.959517
O  -3.956765  -0.903262   0.614015
C  -5.171866  -2.797290   1.199681
C  -6.357062  -3.332737   1.353881
H  -4.381205  -3.446351   1.084747
H  -7.120634  -2.706563   1.513221
H  -6.605000  -4.399844   1.475585
H  -5.982467  -0.698824   0.807027
