%chk=/home/boittier/MDCM/nms_sampling/acrolein_geom.xyz.dir/acrolein_83.chk
%nproc=8
%mem=16000MB
#p B2PLYPD3/Def2QZVP 

acrolein

0 1
C  -5.001524  -1.395715   0.873714
O  -3.943618  -0.858755   0.678899
C  -5.189374  -2.832432   1.121027
C  -6.404670  -3.302648   1.413860
H  -4.290821  -3.440901   1.075321
H  -7.324984  -2.651024   1.416597
H  -6.541758  -4.336317   1.702488
H  -5.881231  -0.780450   0.904641
