%chk=/home/boittier/MDCM/nms_sampling/acrolein_geom.xyz.dir/acrolein_2677.chk
%nproc=8
%mem=16000MB
#p B2PLYPD3/Def2QZVP 

acrolein

0 1
C  -4.996206  -1.376527   0.792257
O  -3.904700  -0.889751   0.734881
C  -5.228073  -2.766615   1.062407
C  -6.404810  -3.335442   1.463680
H  -4.340488  -3.400097   1.096301
H  -7.242670  -2.699946   1.440511
H  -6.659946  -4.434703   1.789178
H  -6.020437  -0.811662   0.954370

