%chk=/home/boittier/MDCM/nms_sampling/acrolein_geom.xyz.dir/acrolein_2545.chk
%nproc=8
%mem=16000MB
#p B2PLYPD3/Def2QZVP 

acrolein

0 1
C  -5.006679  -1.377728   0.931124
O  -3.903678  -0.889949   0.617774
C  -5.216243  -2.764513   1.201085
C  -6.406952  -3.345133   1.350710
H  -4.346805  -3.426039   1.211183
H  -7.213969  -2.703392   1.596400
H  -6.649719  -4.391010   1.405316
H  -6.053885  -0.709884   0.944311
