%chk=/home/boittier/MDCM/nms_sampling/acrolein_geom.xyz.dir/acrolein_1514.chk
%nproc=8
%mem=16000MB
#p B2PLYPD3/Def2QZVP 

acrolein

0 1
C  -5.006067  -1.371121   0.855914
O  -3.922593  -0.881160   0.692378
C  -5.202981  -2.805525   1.093178
C  -6.405612  -3.318794   1.438350
H  -4.391065  -3.436109   1.156341
H  -7.184213  -2.675935   1.429575
H  -6.592080  -4.348922   1.647683
H  -5.963031  -0.792239   0.895864

