%chk=/home/boittier/MDCM/nms_sampling/acrolein_geom.xyz.dir/acrolein_1961.chk
%nproc=8
%mem=16000MB
#p B2PLYPD3/Def2QZVP 

acrolein

0 1
C  -4.982163  -1.428452   0.936818
O  -3.943864  -0.841169   0.614371
C  -5.191446  -2.823040   1.216515
C  -6.412731  -3.306631   1.371518
H  -4.239325  -3.461161   1.030579
H  -7.358267  -2.594503   1.342357
H  -6.579673  -4.329753   1.392410
H  -5.981263  -0.793987   0.976160

