%chk=/home/boittier/MDCM/nms_sampling/acrolein_geom.xyz.dir/acrolein_1939.chk
%nproc=8
%mem=16000MB
#p B2PLYPD3/Def2QZVP 

acrolein

0 1
C  -4.987024  -1.426504   0.865723
O  -3.966694  -0.840276   0.685880
C  -5.168394  -2.834192   1.076142
C  -6.422715  -3.281147   1.439054
H  -4.229776  -3.503859   1.277242
H  -7.320828  -2.627573   1.383948
H  -6.569335  -4.380957   1.670584
H  -5.767485  -0.869900   0.968134
