%chk=/home/boittier/MDCM/nms_sampling/acrolein_geom.xyz.dir/acrolein_2659.chk
%nproc=8
%mem=16000MB
#p B2PLYPD3/Def2QZVP 

acrolein

0 1
C  -5.007488  -1.364836   0.925942
O  -3.909348  -0.882418   0.609871
C  -5.214404  -2.803753   1.229054
C  -6.384711  -3.325521   1.341112
H  -4.495504  -3.430101   1.155747
H  -7.247671  -2.671182   1.534966
H  -6.583449  -4.334582   1.384832
H  -6.111517  -0.800532   1.053309
