%chk=/home/boittier/MDCM/nms_sampling/acrolein_geom.xyz.dir/acrolein_2208.chk
%nproc=8
%mem=16000MB
#p B2PLYPD3/Def2QZVP 

acrolein

0 1
C  -5.007604  -1.365618   0.874890
O  -3.934027  -0.872075   0.687610
C  -5.211352  -2.852406   1.097387
C  -6.393435  -3.304384   1.429075
H  -4.339945  -3.429386   1.032940
H  -7.212480  -2.615021   1.280005
H  -6.494360  -4.279821   1.832415
H  -5.924620  -0.743643   0.914538
