%chk=/home/boittier/MDCM/nms_sampling/acrolein_geom.xyz.dir/acrolein_252.chk
%nproc=8
%mem=16000MB
#p B2PLYPD3/Def2QZVP 

acrolein

0 1
C  -5.008333  -1.373503   0.879460
O  -3.928191  -0.880919   0.672681
C  -5.202867  -2.801529   1.116114
C  -6.402108  -3.319635   1.418918
H  -4.306297  -3.434168   1.156223
H  -7.245069  -2.654860   1.405912
H  -6.605193  -4.405067   1.629409
H  -5.907905  -0.788404   0.928291
