%chk=/home/boittier/MDCM/nms_sampling/acrolein_geom.xyz.dir/acrolein_1494.chk
%nproc=8
%mem=16000MB
#p B2PLYPD3/Def2QZVP 

acrolein

0 1
C  -5.014568  -1.383308   0.929421
O  -3.940468  -0.882555   0.627271
C  -5.199257  -2.787269   1.183302
C  -6.383276  -3.319229   1.387596
H  -4.313776  -3.380000   1.101139
H  -7.208102  -2.685234   1.368779
H  -6.637793  -4.446247   1.423307
H  -5.893823  -0.809649   0.930488

