%chk=/home/boittier/MDCM/nms_sampling/acrolein_geom.xyz.dir/acrolein_2411.chk
%nproc=8
%mem=16000MB
#p B2PLYPD3/Def2QZVP 

acrolein

0 1
C  -4.971083  -1.412727   0.951618
O  -3.927918  -0.843820   0.614325
C  -5.211072  -2.852584   1.190250
C  -6.438917  -3.272096   1.386934
H  -4.314596  -3.534346   1.101233
H  -7.384565  -2.670083   1.322492
H  -6.567530  -4.285431   1.369493
H  -5.749425  -0.888610   0.900713

