%chk=/home/boittier/MDCM/nms_sampling/acrolein_geom.xyz.dir/acrolein_2197.chk
%nproc=8
%mem=16000MB
#p B2PLYPD3/Def2QZVP 

acrolein

0 1
C  -4.994515  -1.423159   0.824522
O  -3.949642  -0.831317   0.720465
C  -5.164426  -2.861791   1.093037
C  -6.414109  -3.289690   1.465870
H  -4.392175  -3.429460   1.017976
H  -7.337371  -2.600523   1.627626
H  -6.530939  -4.223525   1.475521
H  -5.940589  -0.856593   0.620720
