%chk=/home/boittier/MDCM/nms_sampling/acrolein_geom.xyz.dir/acrolein_96.chk
%nproc=8
%mem=16000MB
#p B2PLYPD3/Def2QZVP 

acrolein

0 1
C  -5.001074  -1.405223   0.876062
O  -3.940788  -0.856086   0.674663
C  -5.194748  -2.830353   1.115979
C  -6.405828  -3.295919   1.421781
H  -4.303990  -3.443298   1.154465
H  -7.244406  -2.667702   1.421980
H  -6.564177  -4.337893   1.605650
H  -5.895390  -0.791179   0.913856

