%chk=/home/boittier/MDCM/nms_sampling/acrolein_geom.xyz.dir/acrolein_1285.chk
%nproc=8
%mem=16000MB
#p B2PLYPD3/Def2QZVP 

acrolein

0 1
C  -5.021884  -1.360519   0.855651
O  -3.941484  -0.885154   0.692036
C  -5.191405  -2.805411   1.133967
C  -6.388529  -3.323504   1.414908
H  -4.307869  -3.449788   0.968875
H  -7.154397  -2.667987   1.553521
H  -6.534760  -4.392224   1.647340
H  -5.977304  -0.746923   0.775090

