%chk=/home/boittier/MDCM/nms_sampling/acrolein_geom.xyz.dir/acrolein_1801.chk
%nproc=8
%mem=16000MB
#p B2PLYPD3/Def2QZVP 

acrolein

0 1
C  -5.031230  -1.344396   0.948166
O  -3.959817  -0.881688   0.601114
C  -5.162529  -2.839644   1.239932
C  -6.380154  -3.315301   1.360140
H  -4.331754  -3.404729   0.987021
H  -7.211579  -2.641021   1.278542
H  -6.549857  -4.344481   1.379629
H  -5.903325  -0.799864   1.033140

