%chk=/home/boittier/MDCM/nms_sampling/acrolein_geom.xyz.dir/acrolein_1692.chk
%nproc=8
%mem=16000MB
#p B2PLYPD3/Def2QZVP 

acrolein

0 1
C  -5.003753  -1.402759   0.870630
O  -3.944257  -0.856838   0.690112
C  -5.183836  -2.830132   1.091473
C  -6.409187  -3.291179   1.435649
H  -4.319279  -3.476192   1.100493
H  -7.238455  -2.664044   1.385392
H  -6.576340  -4.369781   1.719328
H  -5.873695  -0.798891   0.847750

