%chk=/home/boittier/MDCM/nms_sampling/acrolein_geom.xyz.dir/acrolein_1103.chk
%nproc=8
%mem=16000MB
#p B2PLYPD3/Def2QZVP 

acrolein

0 1
C  -5.022464  -1.347337   0.850300
O  -3.926491  -0.890030   0.695563
C  -5.196104  -2.807000   1.134780
C  -6.395444  -3.327096   1.419501
H  -4.305850  -3.420608   0.939047
H  -7.281963  -2.707288   1.542095
H  -6.562430  -4.391264   1.641832
H  -5.931570  -0.773612   0.768683
