%chk=/home/boittier/MDCM/nms_sampling/acrolein_geom.xyz.dir/acrolein_1933.chk
%nproc=8
%mem=16000MB
#p B2PLYPD3/Def2QZVP 

acrolein

0 1
C  -4.990259  -1.418296   0.959276
O  -3.921371  -0.839986   0.595717
C  -5.191535  -2.830545   1.252990
C  -6.442561  -3.309565   1.324076
H  -4.164793  -3.493558   1.001074
H  -7.323616  -2.596941   1.466259
H  -6.589768  -4.313332   1.460461
H  -5.990780  -0.797361   0.968452

