%chk=/home/boittier/MDCM/nms_sampling/acrolein_geom.xyz.dir/acrolein_1480.chk
%nproc=8
%mem=16000MB
#p B2PLYPD3/Def2QZVP 

acrolein

0 1
C  -5.020871  -1.380072   0.849966
O  -3.941442  -0.878907   0.693174
C  -5.188450  -2.806837   1.123633
C  -6.383915  -3.309095   1.426083
H  -4.317224  -3.397211   1.012488
H  -7.182633  -2.677698   1.473186
H  -6.650507  -4.452447   1.643449
H  -5.925648  -0.765814   0.853109

