%chk=/home/boittier/MDCM/nms_sampling/acrolein_geom.xyz.dir/acrolein_2503.chk
%nproc=8
%mem=16000MB
#p B2PLYPD3/Def2QZVP 

acrolein

0 1
C  -5.014480  -1.332234   0.930925
O  -3.926089  -0.912346   0.610522
C  -5.212582  -2.792115   1.190911
C  -6.368089  -3.331092   1.368020
H  -4.515187  -3.337968   1.242701
H  -7.233851  -2.689146   1.278625
H  -6.618579  -4.410093   1.475120
H  -5.920363  -0.782192   1.199468
