%chk=/home/boittier/MDCM/nms_sampling/acrolein_geom.xyz.dir/acrolein_274.chk
%nproc=8
%mem=16000MB
#p B2PLYPD3/Def2QZVP 

acrolein

0 1
C  -5.003661  -1.376541   0.877776
O  -3.929691  -0.875264   0.675404
C  -5.195406  -2.808263   1.131545
C  -6.404996  -3.325009   1.421246
H  -4.330024  -3.408721   1.050641
H  -7.279915  -2.658530   1.443627
H  -6.563899  -4.350615   1.570964
H  -5.977928  -0.772014   0.830462
