%chk=/home/boittier/MDCM/nms_sampling/acrolein_geom.xyz.dir/acrolein_2616.chk
%nproc=8
%mem=16000MB
#p B2PLYPD3/Def2QZVP 

acrolein

0 1
C  -4.987703  -1.389819   0.969034
O  -3.929179  -0.857795   0.613699
C  -5.211138  -2.842999   1.143554
C  -6.418633  -3.310419   1.389506
H  -4.284933  -3.427854   1.219922
H  -7.367465  -2.603840   1.139235
H  -6.530188  -4.225650   1.630025
H  -5.833343  -0.829374   1.030550

