%chk=/home/boittier/MDCM/nms_sampling/acrolein_geom.xyz.dir/acrolein_1499.chk
%nproc=8
%mem=16000MB
#p B2PLYPD3/Def2QZVP 

acrolein

0 1
C  -5.017719  -1.361581   0.841151
O  -3.927688  -0.879227   0.696909
C  -5.182167  -2.819871   1.121833
C  -6.399260  -3.320339   1.436271
H  -4.354900  -3.451581   1.046399
H  -7.288080  -2.676555   1.539074
H  -6.604471  -4.360753   1.527716
H  -5.988049  -0.722316   0.808951
