%chk=/home/boittier/MDCM/nms_sampling/acrolein_geom.xyz.dir/acrolein_290.chk
%nproc=8
%mem=16000MB
#p B2PLYPD3/Def2QZVP 

acrolein

0 1
C  -5.001292  -1.399182   0.867967
O  -3.939914  -0.861204   0.678931
C  -5.193845  -2.824411   1.123047
C  -6.406382  -3.301209   1.424519
H  -4.304010  -3.440488   1.112647
H  -7.269395  -2.650344   1.461336
H  -6.568667  -4.362036   1.561547
H  -5.880857  -0.785052   0.874741

