%chk=/home/boittier/MDCM/nms_sampling/acrolein_geom.xyz.dir/acrolein_1576.chk
%nproc=8
%mem=16000MB
#p B2PLYPD3/Def2QZVP 

acrolein

0 1
C  -4.988645  -1.396223   0.863856
O  -3.926520  -0.854209   0.678987
C  -5.199556  -2.843695   1.119774
C  -6.433409  -3.293562   1.420852
H  -4.230133  -3.485804   1.110213
H  -7.311406  -2.633352   1.357306
H  -6.570992  -4.354086   1.676536
H  -5.901160  -0.780294   0.998878
