%chk=/home/boittier/MDCM/nms_sampling/acrolein_geom.xyz.dir/acrolein_1469.chk
%nproc=8
%mem=16000MB
#p B2PLYPD3/Def2QZVP 

acrolein

0 1
C  -4.992700  -1.394095   0.903725
O  -3.938430  -0.859420   0.638375
C  -5.189537  -2.837380   1.172049
C  -6.428309  -3.293427   1.366961
H  -4.245166  -3.486719   1.187972
H  -7.304224  -2.652782   1.456760
H  -6.580838  -4.362114   1.599058
H  -5.820154  -0.770248   1.071399

