%chk=/home/boittier/MDCM/nms_sampling/acrolein_geom.xyz.dir/acrolein_2033.chk
%nproc=8
%mem=16000MB
#p B2PLYPD3/Def2QZVP 

acrolein

0 1
C  -5.026109  -1.364019   0.955354
O  -3.945605  -0.891371   0.606580
C  -5.214994  -2.786746   1.161525
C  -6.368341  -3.330732   1.382761
H  -4.194222  -3.391914   1.313717
H  -7.066263  -2.700788   1.208727
H  -6.595542  -4.411644   1.487279
H  -5.961289  -0.778121   1.133971

