%chk=/home/boittier/MDCM/nms_sampling/acrolein_geom.xyz.dir/acrolein_353.chk
%nproc=8
%mem=16000MB
#p B2PLYPD3/Def2QZVP 

acrolein

0 1
C  -4.998758  -1.397882   0.913438
O  -3.930962  -0.860546   0.639904
C  -5.193051  -2.821438   1.173171
C  -6.417541  -3.307029   1.381573
H  -4.287126  -3.433517   1.093610
H  -7.273710  -2.671024   1.421703
H  -6.579319  -4.349981   1.543335
H  -5.937410  -0.781737   0.944832
