%chk=/home/boittier/MDCM/nms_sampling/acrolein_geom.xyz.dir/acrolein_1583.chk
%nproc=8
%mem=16000MB
#p B2PLYPD3/Def2QZVP 

acrolein

0 1
C  -4.999508  -1.414817   0.929476
O  -3.942889  -0.850487   0.621625
C  -5.187798  -2.822781   1.187261
C  -6.408635  -3.303163   1.359021
H  -4.285359  -3.442345   1.208830
H  -7.290694  -2.678443   1.498589
H  -6.567471  -4.310274   1.483207
H  -5.906244  -0.800543   0.995417
