%chk=/home/boittier/MDCM/nms_sampling/acrolein_geom.xyz.dir/acrolein_474.chk
%nproc=8
%mem=16000MB
#p B2PLYPD3/Def2QZVP 

acrolein

0 1
C  -5.013256  -1.368025   0.899734
O  -3.926843  -0.879350   0.651382
C  -5.199619  -2.813949   1.165132
C  -6.402503  -3.318182   1.386768
H  -4.326973  -3.449700   1.071479
H  -7.227272  -2.663278   1.459571
H  -6.552576  -4.368336   1.573018
H  -5.951240  -0.747295   0.915332

