%chk=/home/boittier/MDCM/nms_sampling/acrolein_geom.xyz.dir/acrolein_330.chk
%nproc=8
%mem=16000MB
#p B2PLYPD3/Def2QZVP 

acrolein

0 1
C  -5.010799  -1.389618   0.880610
O  -3.937487  -0.872118   0.672462
C  -5.199161  -2.805918   1.135593
C  -6.391381  -3.310201   1.418495
H  -4.339550  -3.441318   1.051646
H  -7.198049  -2.683619   1.442687
H  -6.571604  -4.386082   1.562045
H  -5.946496  -0.770794   0.836434
