%chk=/home/boittier/MDCM/nms_sampling/acrolein_geom.xyz.dir/acrolein_2409.chk
%nproc=8
%mem=16000MB
#p B2PLYPD3/Def2QZVP 

acrolein

0 1
C  -4.986121  -1.423683   0.973124
O  -3.959140  -0.845127   0.608048
C  -5.187061  -2.838734   1.152879
C  -6.415872  -3.284731   1.387674
H  -4.328605  -3.508845   1.214074
H  -7.222885  -2.646604   1.123241
H  -6.497337  -4.276295   1.590284
H  -5.820361  -0.784795   1.044427
