%chk=/home/boittier/MDCM/nms_sampling/acrolein_geom.xyz.dir/acrolein_2414.chk
%nproc=8
%mem=16000MB
#p B2PLYPD3/Def2QZVP 

acrolein

0 1
C  -4.996006  -1.401946   0.821297
O  -3.949927  -0.845662   0.716762
C  -5.188672  -2.867779   1.096442
C  -6.423584  -3.282812   1.456753
H  -4.142167  -3.456492   1.044548
H  -7.349869  -2.615065   1.575543
H  -6.531068  -4.333980   1.541543
H  -5.773528  -0.768863   0.741382
