%chk=/home/boittier/MDCM/nms_sampling/acrolein_geom.xyz.dir/acrolein_17.chk
%nproc=8
%mem=16000MB
#p B2PLYPD3/Def2QZVP 

acrolein

0 1
C  -5.001886  -1.388762   0.902019
O  -3.930221  -0.869116   0.644880
C  -5.195847  -2.812177   1.166980
C  -6.405300  -3.310441   1.383926
H  -4.327720  -3.418664   1.131333
H  -7.290083  -2.660652   1.442072
H  -6.606376  -4.394036   1.545681
H  -5.934979  -0.800356   0.980952

