%chk=/home/boittier/MDCM/nms_sampling/acrolein_geom.xyz.dir/acrolein_1023.chk
%nproc=8
%mem=16000MB
#p B2PLYPD3/Def2QZVP 

acrolein

0 1
C  -5.014319  -1.362623   0.919841
O  -3.926590  -0.884297   0.633908
C  -5.187483  -2.802315   1.187035
C  -6.406036  -3.327082   1.368905
H  -4.291506  -3.402777   1.083582
H  -7.287718  -2.716160   1.480290
H  -6.595631  -4.412944   1.522229
H  -5.982814  -0.732081   0.920152
