%chk=/home/boittier/MDCM/nms_sampling/acrolein_geom.xyz.dir/acrolein_2259.chk
%nproc=8
%mem=16000MB
#p B2PLYPD3/Def2QZVP 

acrolein

0 1
C  -5.025240  -1.372158   0.839020
O  -3.933694  -0.884227   0.707818
C  -5.202861  -2.789089   1.098499
C  -6.357644  -3.334104   1.452892
H  -4.447478  -3.359430   0.965844
H  -7.139661  -2.627940   1.345831
H  -6.539651  -4.405367   1.707848
H  -6.146910  -0.793315   0.853172
