%chk=/home/boittier/MDCM/nms_sampling/acrolein_geom.xyz.dir/acrolein_1616.chk
%nproc=8
%mem=16000MB
#p B2PLYPD3/Def2QZVP 

acrolein

0 1
C  -5.016262  -1.371649   0.920828
O  -3.945630  -0.876405   0.644475
C  -5.199267  -2.810838   1.143765
C  -6.385313  -3.322435   1.386701
H  -4.240822  -3.418604   1.129508
H  -7.207564  -2.664885   1.332734
H  -6.547430  -4.353462   1.699492
H  -5.934034  -0.800392   0.972911

