%chk=/home/boittier/MDCM/nms_sampling/acrolein_geom.xyz.dir/acrolein_842.chk
%nproc=8
%mem=16000MB
#p B2PLYPD3/Def2QZVP 

acrolein

0 1
C  -5.010103  -1.379699   0.900419
O  -3.940657  -0.875494   0.648236
C  -5.190146  -2.808675   1.162659
C  -6.400554  -3.316179   1.392916
H  -4.266451  -3.420727   1.096741
H  -7.234519  -2.668482   1.387645
H  -6.606734  -4.396819   1.557185
H  -5.904476  -0.770476   0.975363
