%chk=/home/boittier/MDCM/nms_sampling/acrolein_geom.xyz.dir/acrolein_880.chk
%nproc=8
%mem=16000MB
#p B2PLYPD3/Def2QZVP 

acrolein

0 1
C  -5.006182  -1.387202   0.871641
O  -3.938212  -0.873128   0.676864
C  -5.191239  -2.804681   1.126995
C  -6.402116  -3.312189   1.412105
H  -4.329837  -3.439702   1.117567
H  -7.198219  -2.660910   1.509298
H  -6.580830  -4.410220   1.601914
H  -5.954961  -0.772551   0.868543
