%chk=/home/boittier/MDCM/nms_sampling/acrolein_geom.xyz.dir/acrolein_625.chk
%nproc=8
%mem=16000MB
#p B2PLYPD3/Def2QZVP 

acrolein

0 1
C  -4.996982  -1.396631   0.905652
O  -3.934114  -0.859155   0.646710
C  -5.193716  -2.828209   1.153809
C  -6.418765  -3.305308   1.393470
H  -4.297081  -3.443449   1.126665
H  -7.284313  -2.637598   1.348639
H  -6.565828  -4.318708   1.599472
H  -5.876581  -0.811199   1.001934

