%chk=/home/boittier/MDCM/nms_sampling/acrolein_geom.xyz.dir/acrolein_2308.chk
%nproc=8
%mem=16000MB
#p B2PLYPD3/Def2QZVP 

acrolein

0 1
C  -5.007995  -1.405932   0.816089
O  -3.937718  -0.838122   0.729179
C  -5.172861  -2.856709   1.077217
C  -6.417759  -3.302360   1.472943
H  -4.197461  -3.527692   0.900582
H  -7.387995  -2.597730   1.299744
H  -6.560693  -4.271628   1.794039
H  -5.959649  -0.741391   0.836859

