%chk=/home/boittier/MDCM/nms_sampling/acrolein_geom.xyz.dir/acrolein_2419.chk
%nproc=8
%mem=16000MB
#p B2PLYPD3/Def2QZVP 

acrolein

0 1
C  -4.994692  -1.380985   0.964896
O  -3.919010  -0.859593   0.590680
C  -5.208449  -2.849227   1.213822
C  -6.425798  -3.304467   1.361646
H  -4.318578  -3.420849   1.250575
H  -7.392308  -2.627393   1.402750
H  -6.479804  -4.270238   1.248417
H  -5.852087  -0.829733   1.006328
