%chk=/home/boittier/MDCM/nms_sampling/acrolein_geom.xyz.dir/acrolein_169.chk
%nproc=8
%mem=16000MB
#p B2PLYPD3/Def2QZVP 

acrolein

0 1
C  -5.011750  -1.385096   0.918124
O  -3.936631  -0.871600   0.639162
C  -5.193466  -2.805147   1.168032
C  -6.392234  -3.322150   1.391092
H  -4.313065  -3.418802   1.096069
H  -7.254893  -2.657357   1.388599
H  -6.564607  -4.371180   1.506454
H  -5.984136  -0.770404   0.918960
