%chk=/home/boittier/MDCM/nms_sampling/acrolein_geom.xyz.dir/acrolein_2642.chk
%nproc=8
%mem=16000MB
#p B2PLYPD3/Def2QZVP 

acrolein

0 1
C  -4.978838  -1.426940   0.972700
O  -3.967865  -0.837222   0.587176
C  -5.172401  -2.850114   1.178907
C  -6.423743  -3.272285   1.354486
H  -4.292356  -3.497261   1.410226
H  -7.296410  -2.604664   1.267715
H  -6.569822  -4.325284   1.473421
H  -5.740954  -0.903979   1.208115

