%chk=/home/boittier/MDCM/nms_sampling/acrolein_geom.xyz.dir/acrolein_1205.chk
%nproc=8
%mem=16000MB
#p B2PLYPD3/Def2QZVP 

acrolein

0 1
C  -4.994793  -1.403849   0.922038
O  -3.941831  -0.860469   0.625315
C  -5.204865  -2.819129   1.201800
C  -6.404877  -3.299069   1.376824
H  -4.304072  -3.438471   1.053983
H  -7.202774  -2.639997   1.361697
H  -6.543173  -4.369577   1.442683
H  -5.905016  -0.830352   0.993880
