%chk=/home/boittier/MDCM/nms_sampling/acrolein_geom.xyz.dir/acrolein_1179.chk
%nproc=8
%mem=16000MB
#p B2PLYPD3/Def2QZVP 

acrolein

0 1
C  -4.998222  -1.385970   0.872960
O  -3.929220  -0.879761   0.689510
C  -5.214468  -2.790778   1.098891
C  -6.407358  -3.323491   1.425764
H  -4.300598  -3.405286   1.066426
H  -7.213723  -2.693634   1.421108
H  -6.551203  -4.370503   1.753986
H  -5.910067  -0.771383   0.824568
