%chk=/home/boittier/MDCM/nms_sampling/acrolein_geom.xyz.dir/acrolein_1495.chk
%nproc=8
%mem=16000MB
#p B2PLYPD3/Def2QZVP 

acrolein

0 1
C  -5.012693  -1.361649   0.869347
O  -3.918352  -0.889095   0.678205
C  -5.211092  -2.804529   1.125052
C  -6.408407  -3.318578   1.422976
H  -4.304110  -3.410220   1.109897
H  -7.143782  -2.703911   1.477245
H  -6.600206  -4.403282   1.552371
H  -5.941895  -0.745913   0.860184
