%chk=/home/boittier/MDCM/nms_sampling/acrolein_geom.xyz.dir/acrolein_2344.chk
%nproc=8
%mem=16000MB
#p B2PLYPD3/Def2QZVP 

acrolein

0 1
C  -4.994242  -1.381139   0.841470
O  -3.923605  -0.862752   0.695099
C  -5.186339  -2.857251   1.092303
C  -6.438507  -3.290776   1.439221
H  -4.340922  -3.485786   1.188093
H  -7.275749  -2.567337   1.397555
H  -6.623707  -4.337095   1.665076
H  -5.824761  -0.751219   1.002149
