%chk=/home/boittier/MDCM/nms_sampling/acrolein_geom.xyz.dir/acrolein_1004.chk
%nproc=8
%mem=16000MB
#p B2PLYPD3/Def2QZVP 

acrolein

0 1
C  -5.019349  -1.357906   0.907744
O  -3.938485  -0.881169   0.635528
C  -5.201366  -2.822056   1.180168
C  -6.379344  -3.317526   1.383791
H  -4.330407  -3.469083   1.146200
H  -7.190194  -2.671113   1.428513
H  -6.563660  -4.317873   1.447820
H  -5.962597  -0.770801   1.000267
