%chk=/home/boittier/MDCM/nms_sampling/acrolein_geom.xyz.dir/acrolein_1591.chk
%nproc=8
%mem=16000MB
#p B2PLYPD3/Def2QZVP 

acrolein

0 1
C  -5.007076  -1.375060   0.936772
O  -3.930941  -0.878014   0.621280
C  -5.203284  -2.799242   1.190466
C  -6.393041  -3.332469   1.380611
H  -4.340311  -3.428055   1.100509
H  -7.285600  -2.651774   1.365374
H  -6.523989  -4.336423   1.423405
H  -5.991303  -0.762675   0.939706
