%chk=/home/boittier/MDCM/nms_sampling/acrolein_geom.xyz.dir/acrolein_2457.chk
%nproc=8
%mem=16000MB
#p B2PLYPD3/Def2QZVP 

acrolein

0 1
C  -5.051977  -1.331359   0.969947
O  -3.953787  -0.902219   0.591518
C  -5.164156  -2.796167   1.188129
C  -6.357702  -3.332084   1.341472
H  -4.363708  -3.443268   1.372141
H  -7.182992  -2.718714   1.419937
H  -6.561090  -4.457306   1.472160
H  -5.985434  -0.707839   1.102668

