%chk=/home/boittier/MDCM/nms_sampling/acrolein_geom.xyz.dir/acrolein_1966.chk
%nproc=8
%mem=16000MB
#p B2PLYPD3/Def2QZVP 

acrolein

0 1
C  -5.008891  -1.380041   0.959917
O  -3.927864  -0.866872   0.595549
C  -5.200362  -2.837265   1.219526
C  -6.413810  -3.300911   1.343136
H  -4.336818  -3.499624   1.221262
H  -7.197407  -2.711987   1.514691
H  -6.512099  -4.273428   1.333470
H  -5.911898  -0.723812   0.970819

