%chk=/home/boittier/MDCM/nms_sampling/acrolein_geom.xyz.dir/acrolein_1866.chk
%nproc=8
%mem=16000MB
#p B2PLYPD3/Def2QZVP 

acrolein

0 1
C  -5.032840  -1.332050   0.869779
O  -3.918067  -0.902016   0.688734
C  -5.202213  -2.789171   1.104658
C  -6.403019  -3.354324   1.449782
H  -4.258733  -3.366772   1.065569
H  -7.177993  -2.687349   1.433060
H  -6.482324  -4.372142   1.520678
H  -5.998289  -0.740854   0.743474

