%chk=/home/boittier/MDCM/nms_sampling/acrolein_geom.xyz.dir/acrolein_2312.chk
%nproc=8
%mem=16000MB
#p B2PLYPD3/Def2QZVP 

acrolein

0 1
C  -5.030670  -1.363031   0.830565
O  -3.947663  -0.897894   0.717127
C  -5.188064  -2.767928   1.098765
C  -6.362033  -3.335061   1.429258
H  -4.423466  -3.373221   0.935384
H  -7.211218  -2.722143   1.480897
H  -6.557620  -4.453112   1.864535
H  -5.928659  -0.787831   0.819862
