%chk=/home/boittier/MDCM/nms_sampling/acrolein_geom.xyz.dir/acrolein_163.chk
%nproc=8
%mem=16000MB
#p B2PLYPD3/Def2QZVP 

acrolein

0 1
C  -5.007247  -1.377534   0.883066
O  -3.930977  -0.873341   0.669423
C  -5.198022  -2.817486   1.125278
C  -6.404131  -3.314682   1.403977
H  -4.343535  -3.423684   1.144738
H  -7.262684  -2.666685   1.449044
H  -6.541217  -4.342833   1.671334
H  -5.919207  -0.783269   0.930714
