%chk=/home/boittier/MDCM/nms_sampling/acrolein_geom.xyz.dir/acrolein_2481.chk
%nproc=8
%mem=16000MB
#p B2PLYPD3/Def2QZVP 

acrolein

0 1
C  -5.014951  -1.348254   0.836525
O  -3.927801  -0.901688   0.720496
C  -5.217162  -2.799775   1.095710
C  -6.390094  -3.306045   1.473591
H  -4.336915  -3.470510   0.892636
H  -7.104716  -2.714590   1.520438
H  -6.615068  -4.497010   1.522766
H  -5.897260  -0.728088   0.559328
