%chk=/home/boittier/MDCM/nms_sampling/acrolein_geom.xyz.dir/acrolein_2471.chk
%nproc=8
%mem=16000MB
#p B2PLYPD3/Def2QZVP 

acrolein

0 1
C  -5.028555  -1.363030   0.841097
O  -3.941922  -0.886154   0.709991
C  -5.200217  -2.787903   1.105727
C  -6.370187  -3.338257   1.418924
H  -4.200418  -3.406034   0.945297
H  -7.214305  -2.743293   1.502987
H  -6.532085  -4.412853   1.866508
H  -6.070850  -0.713189   0.812052

