%chk=/home/boittier/MDCM/nms_sampling/acrolein_geom.xyz.dir/acrolein_1922.chk
%nproc=8
%mem=16000MB
#p B2PLYPD3/Def2QZVP 

acrolein

0 1
C  -5.028315  -1.368941   0.851996
O  -3.925139  -0.888418   0.715180
C  -5.188246  -2.791088   1.068033
C  -6.388624  -3.321842   1.470111
H  -4.309708  -3.415984   0.999523
H  -7.156495  -2.619127   1.400984
H  -6.674633  -4.555580   1.688005
H  -6.045689  -0.704366   0.672583

