%chk=/home/boittier/MDCM/nms_sampling/acrolein_geom.xyz.dir/acrolein_1219.chk
%nproc=8
%mem=16000MB
#p B2PLYPD3/Def2QZVP 

acrolein

0 1
C  -5.000268  -1.411447   0.920443
O  -3.943934  -0.850786   0.635864
C  -5.193493  -2.834422   1.145682
C  -6.411226  -3.290620   1.391356
H  -4.286314  -3.490043   1.235984
H  -7.208793  -2.638076   1.322461
H  -6.548690  -4.330791   1.577275
H  -5.873863  -0.800735   1.049151

