%chk=/home/boittier/MDCM/nms_sampling/acrolein_geom.xyz.dir/acrolein_104.chk
%nproc=8
%mem=16000MB
#p B2PLYPD3/Def2QZVP 

acrolein

0 1
C  -4.995832  -1.390629   0.909512
O  -3.935686  -0.861091   0.641212
C  -5.194497  -2.833888   1.164232
C  -6.414888  -3.306200   1.381039
H  -4.325581  -3.442751   1.167035
H  -7.307367  -2.652018   1.462589
H  -6.521387  -4.293648   1.536962
H  -5.896110  -0.777343   0.965914

