%chk=/home/boittier/MDCM/nms_sampling/acrolein_geom.xyz.dir/acrolein_1816.chk
%nproc=8
%mem=16000MB
#p B2PLYPD3/Def2QZVP 

acrolein

0 1
C  -5.022724  -1.338733   0.869612
O  -3.912924  -0.901389   0.669640
C  -5.212947  -2.780596   1.126708
C  -6.381061  -3.360991   1.392097
H  -4.309133  -3.435784   1.202139
H  -7.273789  -2.655627   1.441860
H  -6.558566  -4.370636   1.744189
H  -6.122798  -0.656024   1.078210
