%chk=/home/boittier/MDCM/nms_sampling/acrolein_geom.xyz.dir/acrolein_64.chk
%nproc=8
%mem=16000MB
#p B2PLYPD3/Def2QZVP 

acrolein

0 1
C  -5.010252  -1.383847   0.878816
O  -3.940509  -0.870767   0.669902
C  -5.189372  -2.814563   1.134420
C  -6.399247  -3.311058   1.407893
H  -4.308569  -3.427776   1.125490
H  -7.221051  -2.678641   1.495203
H  -6.568677  -4.376181   1.577396
H  -5.938272  -0.780625   0.885285

