%chk=/home/boittier/MDCM/nms_sampling/acrolein_geom.xyz.dir/acrolein_1102.chk
%nproc=8
%mem=16000MB
#p B2PLYPD3/Def2QZVP 

acrolein

0 1
C  -4.993926  -1.390221   0.918394
O  -3.927984  -0.855921   0.641498
C  -5.193539  -2.847190   1.163927
C  -6.430224  -3.292587   1.379321
H  -4.304348  -3.499091   1.106002
H  -7.259840  -2.655811   1.436046
H  -6.596752  -4.280503   1.596174
H  -5.865254  -0.824326   0.917586

