%chk=/home/boittier/MDCM/nms_sampling/acrolein_geom.xyz.dir/acrolein_1133.chk
%nproc=8
%mem=16000MB
#p B2PLYPD3/Def2QZVP 

acrolein

0 1
C  -5.002879  -1.369804   0.859215
O  -3.927730  -0.880991   0.690547
C  -5.192045  -2.809386   1.113898
C  -6.414346  -3.311042   1.434542
H  -4.322539  -3.413512   1.072737
H  -7.210995  -2.656308   1.508726
H  -6.610219  -4.465649   1.558402
H  -5.970264  -0.786120   0.784383

