%chk=/home/boittier/MDCM/nms_sampling/acrolein_geom.xyz.dir/acrolein_1409.chk
%nproc=8
%mem=16000MB
#p B2PLYPD3/Def2QZVP 

acrolein

0 1
C  -5.004154  -1.397191   0.903428
O  -3.950826  -0.854568   0.640076
C  -5.184945  -2.838842   1.165124
C  -6.406359  -3.299146   1.387221
H  -4.200840  -3.460786   1.173478
H  -7.322197  -2.639708   1.373655
H  -6.544208  -4.354735   1.533659
H  -5.861030  -0.777406   1.058696

