%chk=/home/boittier/MDCM/nms_sampling/acrolein_geom.xyz.dir/acrolein_1773.chk
%nproc=8
%mem=16000MB
#p B2PLYPD3/Def2QZVP 

acrolein

0 1
C  -5.002321  -1.383545   0.876167
O  -3.947463  -0.857591   0.675585
C  -5.181337  -2.851296   1.139026
C  -6.407489  -3.289151   1.402763
H  -4.280820  -3.497279   1.017654
H  -7.324747  -2.661441   1.458866
H  -6.563718  -4.339776   1.692225
H  -5.861274  -0.804168   0.874917

