%chk=/home/boittier/MDCM/nms_sampling/acrolein_geom.xyz.dir/acrolein_2008.chk
%nproc=8
%mem=16000MB
#p B2PLYPD3/Def2QZVP 

acrolein

0 1
C  -4.998477  -1.414322   0.872714
O  -3.957547  -0.846687   0.672881
C  -5.169896  -2.834930   1.136671
C  -6.411277  -3.307082   1.417670
H  -4.309164  -3.492970   1.021293
H  -7.405918  -2.576996   1.297193
H  -6.542929  -4.243093   1.674660
H  -5.749005  -0.787827   0.989543
