%chk=/home/boittier/MDCM/nms_sampling/acrolein_geom.xyz.dir/acrolein_1899.chk
%nproc=8
%mem=16000MB
#p B2PLYPD3/Def2QZVP 

acrolein

0 1
C  -5.012491  -1.343553   0.832927
O  -3.923568  -0.902408   0.706844
C  -5.207539  -2.792444   1.113889
C  -6.385969  -3.334380   1.437457
H  -4.496424  -3.460839   1.058047
H  -7.197122  -2.735264   1.679034
H  -6.523327  -4.315956   1.501255
H  -5.997730  -0.677544   0.699560

