%chk=/home/boittier/MDCM/nms_sampling/acrolein_geom.xyz.dir/acrolein_1925.chk
%nproc=8
%mem=16000MB
#p B2PLYPD3/Def2QZVP 

acrolein

0 1
C  -5.024294  -1.361788   0.925817
O  -3.920029  -0.899315   0.624262
C  -5.221929  -2.770484   1.157945
C  -6.374804  -3.345756   1.393857
H  -4.424555  -3.417425   1.282278
H  -7.174214  -2.652609   1.291002
H  -6.508946  -4.377938   1.450956
H  -5.979877  -0.711944   1.099734

