%chk=/home/boittier/MDCM/nms_sampling/acrolein_geom.xyz.dir/acrolein_2564.chk
%nproc=8
%mem=16000MB
#p B2PLYPD3/Def2QZVP 

acrolein

0 1
C  -4.983709  -1.380557   0.830708
O  -3.921168  -0.857974   0.717159
C  -5.216875  -2.862694   1.088742
C  -6.436166  -3.285932   1.444144
H  -4.229519  -3.525266   1.086716
H  -7.224421  -2.662809   1.702055
H  -6.608235  -4.247434   1.580038
H  -5.854917  -0.809743   0.650707
