%chk=/home/boittier/MDCM/nms_sampling/acrolein_geom.xyz.dir/acrolein_2372.chk
%nproc=8
%mem=16000MB
#p B2PLYPD3/Def2QZVP 

acrolein

0 1
C  -5.016410  -1.348421   0.804053
O  -3.919871  -0.899582   0.718007
C  -5.222305  -2.789140   1.123690
C  -6.401777  -3.324587   1.428340
H  -4.266079  -3.465466   1.018786
H  -7.117516  -2.682190   1.727138
H  -6.581964  -4.447972   1.565882
H  -5.903200  -0.767724   0.781473

