%chk=/home/boittier/MDCM/nms_sampling/acrolein_geom.xyz.dir/acrolein_1089.chk
%nproc=8
%mem=16000MB
#p B2PLYPD3/Def2QZVP 

acrolein

0 1
C  -5.004813  -1.384444   0.876830
O  -3.948205  -0.855949   0.683755
C  -5.181565  -2.841734   1.105791
C  -6.404656  -3.303151   1.416687
H  -4.249518  -3.499766   1.108689
H  -7.392910  -2.635879   1.480115
H  -6.519199  -4.318507   1.714522
H  -5.865343  -0.820329   0.826262

