%chk=/home/boittier/MDCM/nms_sampling/acrolein_geom.xyz.dir/acrolein_2249.chk
%nproc=8
%mem=16000MB
#p B2PLYPD3/Def2QZVP 

acrolein

0 1
C  -5.011436  -1.384913   0.788906
O  -3.944457  -0.893320   0.729341
C  -5.227570  -2.759508   1.117251
C  -6.368215  -3.336909   1.436366
H  -4.270590  -3.328907   0.992574
H  -7.094962  -2.653652   1.754512
H  -6.583485  -4.457435   1.573186
H  -5.913672  -0.813096   0.756267
