%chk=/home/boittier/MDCM/nms_sampling/acrolein_geom.xyz.dir/acrolein_2156.chk
%nproc=8
%mem=16000MB
#p B2PLYPD3/Def2QZVP 

acrolein

0 1
C  -5.051267  -1.337483   0.823652
O  -3.950002  -0.897732   0.722164
C  -5.166551  -2.790801   1.080315
C  -6.367150  -3.334619   1.442010
H  -4.322287  -3.430297   1.107610
H  -7.206595  -2.663466   1.707468
H  -6.535749  -4.493996   1.646061
H  -5.959324  -0.778270   0.685542
