%chk=/home/boittier/MDCM/nms_sampling/acrolein_geom.xyz.dir/acrolein_92.chk
%nproc=8
%mem=16000MB
#p B2PLYPD3/Def2QZVP 

acrolein

0 1
C  -4.993858  -1.401532   0.909665
O  -3.928912  -0.857287   0.640338
C  -5.198066  -2.823712   1.166282
C  -6.416159  -3.306354   1.390672
H  -4.297376  -3.459126   1.148331
H  -7.325070  -2.646394   1.419037
H  -6.582684  -4.332990   1.481592
H  -5.926572  -0.788911   0.960604
