%chk=/home/boittier/MDCM/nms_sampling/acrolein_geom.xyz.dir/acrolein_2385.chk
%nproc=8
%mem=16000MB
#p B2PLYPD3/Def2QZVP 

acrolein

0 1
C  -4.982378  -1.395416   0.894612
O  -3.914081  -0.844037   0.631920
C  -5.188355  -2.850045   1.210586
C  -6.454377  -3.306726   1.378090
H  -4.190564  -3.500020   1.115089
H  -7.417879  -2.648054   1.501654
H  -6.632777  -4.239285   1.304656
H  -5.944584  -0.833106   1.016702
