%chk=/home/boittier/MDCM/nms_sampling/acrolein_geom.xyz.dir/acrolein_2637.chk
%nproc=8
%mem=16000MB
#p B2PLYPD3/Def2QZVP 

acrolein

0 1
C  -5.006140  -1.354607   0.879623
O  -3.926840  -0.883011   0.660818
C  -5.204463  -2.822776   1.144350
C  -6.416132  -3.312051   1.418433
H  -4.264200  -3.420796   1.185418
H  -7.180985  -2.677560   1.487581
H  -6.545771  -4.393606   1.385983
H  -5.932671  -0.812373   0.908068
