%chk=/home/boittier/MDCM/nms_sampling/acrolein_geom.xyz.dir/acrolein_2332.chk
%nproc=8
%mem=16000MB
#p B2PLYPD3/Def2QZVP 

acrolein

0 1
C  -5.023290  -1.354007   0.938184
O  -3.933043  -0.899719   0.597686
C  -5.224960  -2.779513   1.226526
C  -6.380837  -3.338028   1.320839
H  -4.179155  -3.383512   1.252652
H  -7.115204  -2.705359   1.483304
H  -6.539977  -4.449635   1.501517
H  -5.959359  -0.728529   1.199817

