%chk=/home/boittier/MDCM/nms_sampling/acrolein_geom.xyz.dir/acrolein_2250.chk
%nproc=8
%mem=16000MB
#p B2PLYPD3/Def2QZVP 

acrolein

0 1
C  -5.002602  -1.374985   0.932721
O  -3.908791  -0.881449   0.618546
C  -5.187005  -2.798151   1.192544
C  -6.431982  -3.318595   1.356739
H  -4.316447  -3.445799   1.252809
H  -7.278151  -2.618281   1.619448
H  -6.707079  -4.506592   1.365939
H  -5.974115  -0.733233   0.913850
