%chk=/home/boittier/MDCM/nms_sampling/acrolein_geom.xyz.dir/acrolein_1166.chk
%nproc=8
%mem=16000MB
#p B2PLYPD3/Def2QZVP 

acrolein

0 1
C  -4.997660  -1.399311   0.934534
O  -3.929216  -0.850493   0.618329
C  -5.186545  -2.836985   1.187999
C  -6.427219  -3.309107   1.357133
H  -4.240148  -3.490844   1.216427
H  -7.333862  -2.655778   1.482632
H  -6.575925  -4.265085   1.487885
H  -5.940874  -0.766582   1.004855

