%chk=/home/boittier/MDCM/nms_sampling/acrolein_geom.xyz.dir/acrolein_878.chk
%nproc=8
%mem=16000MB
#p B2PLYPD3/Def2QZVP 

acrolein

0 1
C  -5.007616  -1.369831   0.915351
O  -3.927956  -0.878844   0.641652
C  -5.198559  -2.813426   1.165055
C  -6.399338  -3.318642   1.394558
H  -4.331483  -3.425459   1.097929
H  -7.237701  -2.672759   1.397435
H  -6.592642  -4.373501   1.496243
H  -5.996202  -0.749242   0.905978
