%chk=/home/boittier/MDCM/nms_sampling/acrolein_geom.xyz.dir/acrolein_2297.chk
%nproc=8
%mem=16000MB
#p B2PLYPD3/Def2QZVP 

acrolein

0 1
C  -4.987376  -1.430525   0.866772
O  -3.970404  -0.831683   0.706732
C  -5.150936  -2.860365   1.057169
C  -6.400728  -3.286796   1.468234
H  -4.380803  -3.413831   1.048603
H  -7.412850  -2.578893   1.270732
H  -6.550689  -4.293705   1.780698
H  -5.931011  -0.782180   0.771240

