%chk=/home/boittier/MDCM/nms_sampling/acrolein_geom.xyz.dir/acrolein_1838.chk
%nproc=8
%mem=16000MB
#p B2PLYPD3/Def2QZVP 

acrolein

0 1
C  -4.998462  -1.388900   0.885587
O  -3.908748  -0.880457   0.688495
C  -5.210238  -2.795816   1.078637
C  -6.417697  -3.313661   1.424028
H  -4.407078  -3.362720   1.129287
H  -7.097188  -2.689295   1.409964
H  -6.658112  -4.423760   1.836960
H  -6.043775  -0.753308   0.814115
