%chk=/home/boittier/MDCM/nms_sampling/acrolein_geom.xyz.dir/acrolein_540.chk
%nproc=8
%mem=16000MB
#p B2PLYPD3/Def2QZVP 

acrolein

0 1
C  -5.007621  -1.367724   0.902057
O  -3.929668  -0.878888   0.643112
C  -5.192444  -2.809450   1.173398
C  -6.402934  -3.323405   1.386043
H  -4.323643  -3.418161   1.111602
H  -7.268156  -2.681219   1.428169
H  -6.586249  -4.366109   1.508647
H  -5.985303  -0.776516   0.979869
