%chk=/home/boittier/MDCM/nms_sampling/acrolein_geom.xyz.dir/acrolein_2390.chk
%nproc=8
%mem=16000MB
#p B2PLYPD3/Def2QZVP 

acrolein

0 1
C  -4.984965  -1.412423   0.892937
O  -3.926228  -0.837784   0.679416
C  -5.174592  -2.850719   1.121708
C  -6.449605  -3.309246   1.416327
H  -4.220649  -3.451093   0.998126
H  -7.446554  -2.601392   1.506584
H  -6.557313  -4.253339   1.653441
H  -5.948981  -0.761315   0.677267

