%chk=/home/boittier/MDCM/nms_sampling/acrolein_geom.xyz.dir/acrolein_327.chk
%nproc=8
%mem=16000MB
#p B2PLYPD3/Def2QZVP 

acrolein

0 1
C  -5.009538  -1.379983   0.892089
O  -3.940199  -0.873414   0.658325
C  -5.189508  -2.812305   1.141537
C  -6.391300  -3.313389   1.407299
H  -4.358979  -3.445584   1.144702
H  -7.265370  -2.663599   1.427784
H  -6.553476  -4.386026   1.534652
H  -5.965599  -0.760707   0.924750
