%chk=/home/boittier/MDCM/nms_sampling/acrolein_geom.xyz.dir/acrolein_2073.chk
%nproc=8
%mem=16000MB
#p B2PLYPD3/Def2QZVP 

acrolein

0 1
C  -5.004171  -1.403920   0.817205
O  -3.943559  -0.832048   0.720904
C  -5.161588  -2.884792   1.075746
C  -6.416584  -3.268328   1.426100
H  -4.321360  -3.516816   1.108940
H  -7.402681  -2.611402   1.520558
H  -6.548728  -4.334024   1.914370
H  -5.925844  -0.842436   0.945222
