%chk=/home/boittier/MDCM/nms_sampling/acrolein_geom.xyz.dir/acrolein_1028.chk
%nproc=8
%mem=16000MB
#p B2PLYPD3/Def2QZVP 

acrolein

0 1
C  -5.013245  -1.394647   0.948516
O  -3.938882  -0.875732   0.618821
C  -5.191085  -2.781011   1.175883
C  -6.390984  -3.323142   1.361036
H  -4.314405  -3.408983   1.166251
H  -7.188303  -2.708450   1.384480
H  -6.595797  -4.438986   1.598635
H  -6.006904  -0.759856   0.978488
