%chk=/home/boittier/MDCM/nms_sampling/acrolein_geom.xyz.dir/acrolein_1243.chk
%nproc=8
%mem=16000MB
#p B2PLYPD3/Def2QZVP 

acrolein

0 1
C  -5.021781  -1.368426   0.921630
O  -3.938486  -0.876492   0.630851
C  -5.195960  -2.817265   1.177205
C  -6.385971  -3.316889   1.371275
H  -4.311824  -3.462234   1.174941
H  -7.189077  -2.673555   1.478866
H  -6.564517  -4.330035   1.497199
H  -5.939550  -0.782908   0.961625
