%chk=/home/boittier/MDCM/nms_sampling/acrolein_geom.xyz.dir/acrolein_1887.chk
%nproc=8
%mem=16000MB
#p B2PLYPD3/Def2QZVP 

acrolein

0 1
C  -4.988837  -1.392713   0.849000
O  -3.928754  -0.851961   0.715412
C  -5.180642  -2.860860   1.096460
C  -6.415793  -3.288179   1.436140
H  -4.452344  -3.505487   0.953037
H  -7.466392  -2.583588   1.670569
H  -6.543568  -4.331699   1.678042
H  -5.939450  -0.731737   0.549838
