%chk=/home/boittier/MDCM/nms_sampling/acrolein_geom.xyz.dir/acrolein_365.chk
%nproc=8
%mem=16000MB
#p B2PLYPD3/Def2QZVP 

acrolein

0 1
C  -5.019902  -1.367492   0.880365
O  -3.940701  -0.878898   0.674907
C  -5.185910  -2.815722   1.118104
C  -6.392649  -3.316687   1.422542
H  -4.324342  -3.425470   1.103161
H  -7.228323  -2.667256   1.392992
H  -6.546878  -4.385096   1.631091
H  -5.931201  -0.760353   0.886831
