%chk=/home/boittier/MDCM/nms_sampling/acrolein_geom.xyz.dir/acrolein_803.chk
%nproc=8
%mem=16000MB
#p B2PLYPD3/Def2QZVP 

acrolein

0 1
C  -5.012909  -1.378696   0.887618
O  -3.939592  -0.874814   0.666770
C  -5.186760  -2.808186   1.138355
C  -6.399996  -3.314959   1.401070
H  -4.284418  -3.447312   1.072438
H  -7.252297  -2.685327   1.433812
H  -6.589462  -4.399995   1.663539
H  -5.919741  -0.762409   0.901154

