%chk=/home/boittier/MDCM/nms_sampling/acrolein_geom.xyz.dir/acrolein_2661.chk
%nproc=8
%mem=16000MB
#p B2PLYPD3/Def2QZVP 

acrolein

0 1
C  -4.990709  -1.422660   0.905473
O  -3.963120  -0.836805   0.638966
C  -5.152809  -2.842965   1.146609
C  -6.403408  -3.302888   1.400124
H  -4.304295  -3.405027   1.238544
H  -7.497046  -2.665880   1.251555
H  -6.590287  -4.269434   1.561461
H  -5.925235  -0.790735   1.146487

