%chk=/home/boittier/MDCM/nms_sampling/acrolein_geom.xyz.dir/acrolein_2490.chk
%nproc=8
%mem=16000MB
#p B2PLYPD3/Def2QZVP 

acrolein

0 1
C  -4.997659  -1.391924   0.849435
O  -3.933690  -0.861076   0.700040
C  -5.204668  -2.833090   1.103719
C  -6.404940  -3.319213   1.456195
H  -4.313673  -3.427965   1.043214
H  -7.480982  -2.591918   1.480885
H  -6.490655  -4.245506   1.501002
H  -5.783315  -0.755657   0.734399

