%chk=/home/boittier/MDCM/nms_sampling/acrolein_geom.xyz.dir/acrolein_1585.chk
%nproc=8
%mem=16000MB
#p B2PLYPD3/Def2QZVP 

acrolein

0 1
C  -5.016820  -1.372622   0.854630
O  -3.935196  -0.882686   0.694133
C  -5.184837  -2.798408   1.099300
C  -6.395960  -3.313163   1.426729
H  -4.330748  -3.396528   1.127470
H  -7.181823  -2.701469   1.491490
H  -6.635962  -4.480931   1.693522
H  -5.978512  -0.791539   0.869948
