%chk=/home/boittier/MDCM/nms_sampling/acrolein_geom.xyz.dir/acrolein_1624.chk
%nproc=8
%mem=16000MB
#p B2PLYPD3/Def2QZVP 

acrolein

0 1
C  -4.995176  -1.385423   0.852853
O  -3.932139  -0.859116   0.692262
C  -5.186491  -2.844589   1.134795
C  -6.413746  -3.296354   1.420894
H  -4.329615  -3.491241   0.956305
H  -7.377524  -2.667339   1.506118
H  -6.583930  -4.336709   1.632299
H  -5.940096  -0.753166   0.801397

