%chk=/home/boittier/MDCM/nms_sampling/acrolein_geom.xyz.dir/acrolein_616.chk
%nproc=8
%mem=16000MB
#p B2PLYPD3/Def2QZVP 

acrolein

0 1
C  -5.001675  -1.388240   0.915892
O  -3.933663  -0.860831   0.641184
C  -5.192508  -2.836962   1.164724
C  -6.415651  -3.300770   1.392879
H  -4.293865  -3.450541   1.102286
H  -7.239763  -2.657967   1.394591
H  -6.585110  -4.313445   1.509440
H  -5.902553  -0.807864   0.915657

