%chk=/home/boittier/MDCM/nms_sampling/acrolein_geom.xyz.dir/acrolein_1024.chk
%nproc=8
%mem=16000MB
#p B2PLYPD3/Def2QZVP 

acrolein

0 1
C  -5.003492  -1.375880   0.845799
O  -3.920614  -0.878997   0.693770
C  -5.201058  -2.811533   1.117706
C  -6.406842  -3.304941   1.426305
H  -4.368162  -3.400762   1.056983
H  -7.242591  -2.682174   1.460820
H  -6.651276  -4.447226   1.661179
H  -5.943604  -0.803741   0.906098

