%chk=/home/boittier/MDCM/nms_sampling/acrolein_geom.xyz.dir/acrolein_1130.chk
%nproc=8
%mem=16000MB
#p B2PLYPD3/Def2QZVP 

acrolein

0 1
C  -4.987080  -1.398347   0.869834
O  -3.935636  -0.853404   0.683939
C  -5.183808  -2.843573   1.118592
C  -6.419205  -3.296272   1.411777
H  -4.375376  -3.436611   1.034331
H  -7.353435  -2.614668   1.401828
H  -6.568151  -4.326596   1.779792
H  -5.932398  -0.815261   0.907918

