%chk=/home/boittier/MDCM/nms_sampling/acrolein_geom.xyz.dir/acrolein_514.chk
%nproc=8
%mem=16000MB
#p B2PLYPD3/Def2QZVP 

acrolein

0 1
C  -5.001382  -1.392217   0.884618
O  -3.943322  -0.861539   0.667355
C  -5.190721  -2.826452   1.139362
C  -6.401720  -3.304488   1.405198
H  -4.305856  -3.462816   1.100305
H  -7.320748  -2.659996   1.495793
H  -6.560479  -4.331955   1.575436
H  -5.877989  -0.800675   0.859662
