%chk=/home/boittier/MDCM/nms_sampling/acrolein_geom.xyz.dir/acrolein_1850.chk
%nproc=8
%mem=16000MB
#p B2PLYPD3/Def2QZVP 

acrolein

0 1
C  -5.012064  -1.385793   0.852387
O  -3.943547  -0.877602   0.693196
C  -5.199315  -2.783559   1.154338
C  -6.387927  -3.330793   1.412708
H  -4.201028  -3.368488   0.856511
H  -7.136022  -2.647737   1.573648
H  -6.608358  -4.453301   1.610891
H  -6.031249  -0.813602   0.718293
