%chk=/home/boittier/MDCM/nms_sampling/acrolein_geom.xyz.dir/acrolein_1350.chk
%nproc=8
%mem=16000MB
#p B2PLYPD3/Def2QZVP 

acrolein

0 1
C  -5.004967  -1.378344   0.940720
O  -3.921965  -0.888035   0.619945
C  -5.213225  -2.780534   1.160934
C  -6.408002  -3.329893   1.365747
H  -4.330619  -3.418073   1.277647
H  -7.178554  -2.657526   1.373370
H  -6.598798  -4.401167   1.594768
H  -5.899436  -0.759804   1.066274
