%chk=/home/boittier/MDCM/nms_sampling/acrolein_geom.xyz.dir/acrolein_1880.chk
%nproc=8
%mem=16000MB
#p B2PLYPD3/Def2QZVP 

acrolein

0 1
C  -4.978999  -1.400236   0.841125
O  -3.927960  -0.842875   0.708021
C  -5.200914  -2.866767   1.113106
C  -6.421951  -3.290948   1.425532
H  -4.401394  -3.526369   0.946764
H  -7.418552  -2.609715   1.546641
H  -6.463459  -4.197416   1.740719
H  -5.946223  -0.783125   0.755805

