%chk=/home/boittier/MDCM/nms_sampling/acrolein_geom.xyz.dir/acrolein_2643.chk
%nproc=8
%mem=16000MB
#p B2PLYPD3/Def2QZVP 

acrolein

0 1
C  -5.033279  -1.369178   0.787079
O  -3.946751  -0.873310   0.732750
C  -5.158937  -2.822726   1.103723
C  -6.383652  -3.302915   1.467148
H  -4.352844  -3.408226   0.960011
H  -7.198540  -2.738387   1.569383
H  -6.596159  -4.460134   1.534479
H  -6.046652  -0.773568   0.787567

