%chk=/home/boittier/MDCM/nms_sampling/acrolein_geom.xyz.dir/acrolein_678.chk
%nproc=8
%mem=16000MB
#p B2PLYPD3/Def2QZVP 

acrolein

0 1
C  -5.004227  -1.393558   0.921920
O  -3.942803  -0.856478   0.635782
C  -5.182444  -2.834297   1.153319
C  -6.404235  -3.304996   1.381053
H  -4.312320  -3.451299   1.208939
H  -7.284807  -2.663608   1.384672
H  -6.554967  -4.301588   1.596278
H  -5.949870  -0.799174   1.010693

