%chk=/home/boittier/MDCM/nms_sampling/acrolein_geom.xyz.dir/acrolein_2576.chk
%nproc=8
%mem=16000MB
#p B2PLYPD3/Def2QZVP 

acrolein

0 1
C  -5.016733  -1.365821   0.907829
O  -3.909463  -0.900148   0.625387
C  -5.212777  -2.753976   1.214122
C  -6.399566  -3.334544   1.377770
H  -4.318709  -3.439896   1.090139
H  -7.253093  -2.733468   1.444690
H  -6.655698  -4.542593   1.309732
H  -5.957986  -0.747136   1.007713
