%chk=/home/boittier/MDCM/nms_sampling/acrolein_geom.xyz.dir/acrolein_762.chk
%nproc=8
%mem=16000MB
#p B2PLYPD3/Def2QZVP 

acrolein

0 1
C  -5.010413  -1.373545   0.908146
O  -3.930324  -0.877946   0.639029
C  -5.191905  -2.809616   1.166061
C  -6.407887  -3.317897   1.385762
H  -4.294755  -3.422879   1.156315
H  -7.269232  -2.682723   1.371946
H  -6.586604  -4.395159   1.544742
H  -5.918739  -0.754156   1.035837
