%chk=/home/boittier/MDCM/nms_sampling/acrolein_geom.xyz.dir/acrolein_2587.chk
%nproc=8
%mem=16000MB
#p B2PLYPD3/Def2QZVP 

acrolein

0 1
C  -5.009388  -1.347851   0.832753
O  -3.920015  -0.885759   0.706617
C  -5.189333  -2.831182   1.128869
C  -6.406455  -3.326860   1.449296
H  -4.384379  -3.395827   0.900656
H  -7.186549  -2.636876   1.505612
H  -6.575332  -4.338782   1.515035
H  -6.123381  -0.664650   0.725912

