%chk=/home/boittier/MDCM/nms_sampling/acrolein_geom.xyz.dir/acrolein_1893.chk
%nproc=8
%mem=16000MB
#p B2PLYPD3/Def2QZVP 

acrolein

0 1
C  -5.016778  -1.338804   0.915487
O  -3.921231  -0.897948   0.634794
C  -5.194695  -2.806253   1.203413
C  -6.389013  -3.329373   1.391070
H  -4.395977  -3.379163   0.948277
H  -7.284454  -2.747253   1.362470
H  -6.574843  -4.414879   1.404482
H  -6.066504  -0.692289   0.889077
