%chk=/home/boittier/MDCM/nms_sampling/acrolein_geom.xyz.dir/acrolein_666.chk
%nproc=8
%mem=16000MB
#p B2PLYPD3/Def2QZVP 

acrolein

0 1
C  -5.004657  -1.383156   0.882530
O  -3.938562  -0.861550   0.670150
C  -5.185888  -2.834313   1.126245
C  -6.406287  -3.305643   1.406371
H  -4.310540  -3.462596   1.147287
H  -7.277875  -2.658443   1.486328
H  -6.539870  -4.329240   1.624928
H  -5.970588  -0.793986   0.891015
