%chk=/home/boittier/MDCM/nms_sampling/acrolein_geom.xyz.dir/acrolein_1097.chk
%nproc=8
%mem=16000MB
#p B2PLYPD3/Def2QZVP 

acrolein

0 1
C  -4.992287  -1.382384   0.926154
O  -3.928947  -0.877143   0.622934
C  -5.196036  -2.809137   1.174844
C  -6.414368  -3.311413   1.362444
H  -4.381687  -3.396148   1.239764
H  -7.245911  -2.643056   1.394687
H  -6.619452  -4.407062   1.573615
H  -5.927667  -0.787160   1.103556
