%chk=/home/boittier/MDCM/nms_sampling/acrolein_geom.xyz.dir/acrolein_1750.chk
%nproc=8
%mem=16000MB
#p B2PLYPD3/Def2QZVP 

acrolein

0 1
C  -4.996767  -1.398210   0.902132
O  -3.929203  -0.854038   0.641664
C  -5.192290  -2.833511   1.158111
C  -6.411399  -3.309390   1.391044
H  -4.329574  -3.469876   1.183223
H  -7.420083  -2.647945   1.332181
H  -6.553226  -4.275582   1.564856
H  -5.919697  -0.772108   1.088132
