%chk=/home/boittier/MDCM/nms_sampling/acrolein_geom.xyz.dir/acrolein_1164.chk
%nproc=8
%mem=16000MB
#p B2PLYPD3/Def2QZVP 

acrolein

0 1
C  -5.012571  -1.388973   0.881465
O  -3.942749  -0.876982   0.663681
C  -5.182999  -2.778542   1.136674
C  -6.391199  -3.325947   1.409985
H  -4.315757  -3.421810   1.166467
H  -7.236329  -2.687078   1.451879
H  -6.630699  -4.442110   1.534041
H  -5.962829  -0.814538   0.942726

