%chk=/home/boittier/MDCM/nms_sampling/acrolein_geom.xyz.dir/acrolein_217.chk
%nproc=8
%mem=16000MB
#p B2PLYPD3/Def2QZVP 

acrolein

0 1
C  -4.998614  -1.393914   0.913661
O  -3.940279  -0.861636   0.638270
C  -5.183748  -2.821143   1.173600
C  -6.411204  -3.306996   1.389090
H  -4.276319  -3.438022   1.097018
H  -7.295505  -2.663008   1.383610
H  -6.613450  -4.369692   1.496499
H  -5.929358  -0.802572   0.956222

