%chk=/home/boittier/MDCM/nms_sampling/acrolein_geom.xyz.dir/acrolein_2242.chk
%nproc=8
%mem=16000MB
#p B2PLYPD3/Def2QZVP 

acrolein

0 1
C  -5.006296  -1.363533   0.931141
O  -3.913810  -0.894153   0.613171
C  -5.214346  -2.781190   1.185528
C  -6.416565  -3.333652   1.350825
H  -4.210462  -3.365308   1.276729
H  -7.100771  -2.719561   1.375850
H  -6.648315  -4.465649   1.573486
H  -6.047331  -0.726786   1.186482
