%chk=/home/boittier/MDCM/nms_sampling/acrolein_geom.xyz.dir/acrolein_2569.chk
%nproc=8
%mem=16000MB
#p B2PLYPD3/Def2QZVP 

acrolein

0 1
C  -4.990440  -1.397021   0.951893
O  -3.921341  -0.854542   0.593729
C  -5.192503  -2.833342   1.186058
C  -6.419478  -3.308273   1.356978
H  -4.388058  -3.489920   1.359869
H  -7.537307  -2.625593   1.199902
H  -6.495192  -4.313355   1.515816
H  -5.914912  -0.746697   1.316557

