%chk=/home/boittier/MDCM/nms_sampling/acrolein_geom.xyz.dir/acrolein_448.chk
%nproc=8
%mem=16000MB
#p B2PLYPD3/Def2QZVP 

acrolein

0 1
C  -5.005654  -1.378169   0.916513
O  -3.928498  -0.877455   0.640293
C  -5.201048  -2.804929   1.170740
C  -6.407679  -3.316753   1.383443
H  -4.314609  -3.417705   1.089891
H  -7.252843  -2.677452   1.430407
H  -6.582594  -4.386422   1.536563
H  -5.899737  -0.796283   0.911750
