%chk=/home/boittier/MDCM/nms_sampling/acrolein_geom.xyz.dir/acrolein_1215.chk
%nproc=8
%mem=16000MB
#p B2PLYPD3/Def2QZVP 

acrolein

0 1
C  -5.007789  -1.383601   0.856689
O  -3.944695  -0.872651   0.693052
C  -5.194085  -2.799489   1.109271
C  -6.402433  -3.318579   1.421714
H  -4.222747  -3.460638   1.115835
H  -7.175536  -2.695761   1.598002
H  -6.580345  -4.373946   1.618601
H  -5.933656  -0.811266   0.781345
