%chk=/home/boittier/MDCM/nms_sampling/acrolein_geom.xyz.dir/acrolein_16.chk
%nproc=8
%mem=16000MB
#p B2PLYPD3/Def2QZVP 

acrolein

0 1
C  -4.999607  -1.398935   0.868007
O  -3.945050  -0.860447   0.676957
C  -5.187567  -2.823220   1.134637
C  -6.407856  -3.304560   1.409709
H  -4.281634  -3.457957   1.087674
H  -7.268466  -2.636727   1.503844
H  -6.585346  -4.351747   1.603144
H  -5.882363  -0.783529   0.884092

