%chk=/home/boittier/MDCM/nms_sampling/acrolein_geom.xyz.dir/acrolein_2422.chk
%nproc=8
%mem=16000MB
#p B2PLYPD3/Def2QZVP 

acrolein

0 1
C  -5.011350  -1.384607   0.858961
O  -3.942271  -0.893730   0.701632
C  -5.201806  -2.754248   1.112230
C  -6.371177  -3.343777   1.427246
H  -4.310782  -3.330118   0.970465
H  -7.198239  -2.716374   1.607541
H  -6.659373  -4.468899   1.651792
H  -6.008214  -0.720486   0.638109

