%chk=/home/boittier/MDCM/nms_sampling/acrolein_geom.xyz.dir/acrolein_1187.chk
%nproc=8
%mem=16000MB
#p B2PLYPD3/Def2QZVP 

acrolein

0 1
C  -5.019542  -1.362369   0.941032
O  -3.946295  -0.880339   0.621929
C  -5.179362  -2.813082   1.157790
C  -6.389348  -3.316167   1.366583
H  -4.333526  -3.462271   1.264675
H  -7.212980  -2.678779   1.367359
H  -6.567141  -4.386355   1.620405
H  -5.948428  -0.783287   1.054118

