%chk=/home/boittier/MDCM/nms_sampling/acrolein_geom.xyz.dir/acrolein_1967.chk
%nproc=8
%mem=16000MB
#p B2PLYPD3/Def2QZVP 

acrolein

0 1
C  -4.968825  -1.432447   0.962639
O  -3.928843  -0.837047   0.599287
C  -5.202409  -2.854329   1.200847
C  -6.430635  -3.280270   1.353901
H  -4.341069  -3.424913   1.121155
H  -7.266403  -2.606840   1.164476
H  -6.606199  -4.304584   1.620061
H  -5.990025  -0.780547   1.161074
