%chk=/home/boittier/MDCM/nms_sampling/acrolein_geom.xyz.dir/acrolein_466.chk
%nproc=8
%mem=16000MB
#p B2PLYPD3/Def2QZVP 

acrolein

0 1
C  -4.998729  -1.403179   0.879759
O  -3.937246  -0.856095   0.673299
C  -5.187655  -2.823305   1.134178
C  -6.413422  -3.306739   1.409219
H  -4.292534  -3.433664   1.071336
H  -7.283447  -2.644077   1.487440
H  -6.575325  -4.342182   1.610256
H  -5.936720  -0.804241   0.843509

