%chk=/home/boittier/MDCM/nms_sampling/acrolein_geom.xyz.dir/acrolein_758.chk
%nproc=8
%mem=16000MB
#p B2PLYPD3/Def2QZVP 

acrolein

0 1
C  -5.003266  -1.396712   0.911905
O  -3.943465  -0.858246   0.644298
C  -5.184390  -2.828201   1.146128
C  -6.400368  -3.305513   1.393533
H  -4.312513  -3.434239   1.179961
H  -7.335144  -2.651015   1.366181
H  -6.544346  -4.353154   1.589429
H  -5.937154  -0.779135   0.990576
