%chk=/home/boittier/MDCM/nms_sampling/acrolein_geom.xyz.dir/acrolein_816.chk
%nproc=8
%mem=16000MB
#p B2PLYPD3/Def2QZVP 

acrolein

0 1
C  -4.995164  -1.399586   0.873741
O  -3.935128  -0.858029   0.677665
C  -5.194291  -2.833408   1.115991
C  -6.417451  -3.300591   1.413297
H  -4.311102  -3.438570   1.140099
H  -7.262291  -2.634363   1.458872
H  -6.565473  -4.324520   1.669832
H  -5.896056  -0.783962   0.907684

