%chk=/home/boittier/MDCM/nms_sampling/acrolein_geom.xyz.dir/acrolein_730.chk
%nproc=8
%mem=16000MB
#p B2PLYPD3/Def2QZVP 

acrolein

0 1
C  -5.005726  -1.375578   0.916883
O  -3.934617  -0.880249   0.635697
C  -5.193527  -2.805307   1.180148
C  -6.402431  -3.313995   1.378189
H  -4.356377  -3.435700   1.083997
H  -7.226653  -2.665121   1.403013
H  -6.582553  -4.413941   1.536728
H  -5.929879  -0.761212   0.963738
