%chk=/home/boittier/MDCM/nms_sampling/acrolein_geom.xyz.dir/acrolein_405.chk
%nproc=8
%mem=16000MB
#p B2PLYPD3/Def2QZVP 

acrolein

0 1
C  -5.008766  -1.389632   0.861820
O  -3.938780  -0.868092   0.678988
C  -5.188274  -2.811448   1.134219
C  -6.398147  -3.313074   1.420631
H  -4.347674  -3.446193   1.084758
H  -7.234745  -2.675998   1.477939
H  -6.557160  -4.356788   1.543379
H  -5.970067  -0.765281   0.890152

