%chk=/home/boittier/MDCM/nms_sampling/acrolein_geom.xyz.dir/acrolein_2122.chk
%nproc=8
%mem=16000MB
#p B2PLYPD3/Def2QZVP 

acrolein

0 1
C  -5.020681  -1.333531   0.838208
O  -3.911155  -0.906137   0.714038
C  -5.226520  -2.785977   1.112547
C  -6.388794  -3.349048   1.458052
H  -4.265071  -3.463254   0.878203
H  -7.186812  -2.707400   1.534951
H  -6.595459  -4.353808   1.540595
H  -6.018804  -0.666194   0.606638
