%chk=/home/boittier/MDCM/nms_sampling/acrolein_geom.xyz.dir/acrolein_746.chk
%nproc=8
%mem=16000MB
#p B2PLYPD3/Def2QZVP 

acrolein

0 1
C  -5.008544  -1.370806   0.908199
O  -3.928098  -0.877279   0.638698
C  -5.203616  -2.816732   1.164910
C  -6.401848  -3.319457   1.386655
H  -4.292487  -3.425520   1.165926
H  -7.254763  -2.665445   1.367986
H  -6.572067  -4.348430   1.539865
H  -5.939587  -0.754199   1.041888

