%chk=/home/boittier/MDCM/nms_sampling/acrolein_geom.xyz.dir/acrolein_1856.chk
%nproc=8
%mem=16000MB
#p B2PLYPD3/Def2QZVP 

acrolein

0 1
C  -5.000688  -1.355369   0.851820
O  -3.918371  -0.880102   0.710195
C  -5.191838  -2.821320   1.104006
C  -6.423641  -3.326733   1.458232
H  -4.291549  -3.425588   0.912140
H  -7.314432  -2.732233   1.540820
H  -6.535253  -4.335286   1.542682
H  -6.059608  -0.696658   0.562114
