%chk=/home/boittier/MDCM/nms_sampling/acrolein_geom.xyz.dir/acrolein_1716.chk
%nproc=8
%mem=16000MB
#p B2PLYPD3/Def2QZVP 

acrolein

0 1
C  -5.002323  -1.399790   0.889839
O  -3.935032  -0.856081   0.667997
C  -5.188236  -2.839379   1.123718
C  -6.412858  -3.290137   1.402581
H  -4.292419  -3.452223   1.126836
H  -7.252727  -2.643277   1.423472
H  -6.619217  -4.383557   1.707626
H  -5.911144  -0.784521   0.919046

