%chk=/home/boittier/MDCM/nms_sampling/acrolein_geom.xyz.dir/acrolein_429.chk
%nproc=8
%mem=16000MB
#p B2PLYPD3/Def2QZVP 

acrolein

0 1
C  -4.998616  -1.396378   0.918693
O  -3.939562  -0.854528   0.636234
C  -5.188343  -2.840552   1.165252
C  -6.409843  -3.297304   1.375152
H  -4.281537  -3.455246   1.147990
H  -7.270767  -2.625531   1.383910
H  -6.580524  -4.346739   1.617898
H  -5.950888  -0.802320   1.015298
