%chk=/home/boittier/MDCM/nms_sampling/acrolein_geom.xyz.dir/acrolein_2281.chk
%nproc=8
%mem=16000MB
#p B2PLYPD3/Def2QZVP 

acrolein

0 1
C  -5.001039  -1.376376   0.945021
O  -3.902131  -0.876230   0.600956
C  -5.216413  -2.800822   1.205291
C  -6.432633  -3.315273   1.367443
H  -4.243967  -3.435241   1.274867
H  -7.206347  -2.677649   1.424974
H  -6.586213  -4.462753   1.261409
H  -6.019988  -0.812522   1.047682
