%chk=/home/boittier/MDCM/nms_sampling/acrolein_geom.xyz.dir/acrolein_719.chk
%nproc=8
%mem=16000MB
#p B2PLYPD3/Def2QZVP 

acrolein

0 1
C  -4.996303  -1.385573   0.907915
O  -3.933895  -0.861672   0.650124
C  -5.185974  -2.833610   1.146267
C  -6.418372  -3.303429   1.398797
H  -4.324127  -3.467304   1.114027
H  -7.326562  -2.651349   1.352803
H  -6.562815  -4.337460   1.607911
H  -5.920898  -0.796068   0.950497

