%chk=/home/boittier/MDCM/nms_sampling/acrolein_geom.xyz.dir/acrolein_896.chk
%nproc=8
%mem=16000MB
#p B2PLYPD3/Def2QZVP 

acrolein

0 1
C  -5.008156  -1.388249   0.914369
O  -3.941465  -0.865267   0.637649
C  -5.183688  -2.820835   1.159792
C  -6.406029  -3.310279   1.379066
H  -4.258297  -3.437460   1.183107
H  -7.276931  -2.662902   1.380864
H  -6.602483  -4.365417   1.604708
H  -5.902001  -0.781061   1.039848

