%chk=/home/boittier/MDCM/nms_sampling/acrolein_geom.xyz.dir/acrolein_1365.chk
%nproc=8
%mem=16000MB
#p B2PLYPD3/Def2QZVP 

acrolein

0 1
C  -5.017726  -1.378156   0.838098
O  -3.936152  -0.876231   0.695576
C  -5.203261  -2.809887   1.125152
C  -6.380965  -3.321538   1.434640
H  -4.357402  -3.439264   1.043313
H  -7.234845  -2.672754   1.495448
H  -6.553119  -4.304759   1.550189
H  -5.921543  -0.754690   0.870911

