%chk=/home/boittier/MDCM/nms_sampling/acrolein_geom.xyz.dir/acrolein_1035.chk
%nproc=8
%mem=16000MB
#p B2PLYPD3/Def2QZVP 

acrolein

0 1
C  -4.993986  -1.395059   0.911299
O  -3.928737  -0.858517   0.643699
C  -5.182050  -2.831519   1.139267
C  -6.431244  -3.305061   1.395148
H  -4.258732  -3.437227   1.233229
H  -7.346504  -2.621220   1.367357
H  -6.617549  -4.384683   1.582056
H  -5.917013  -0.765407   1.016909
