%chk=/home/boittier/MDCM/nms_sampling/acrolein_geom.xyz.dir/acrolein_197.chk
%nproc=8
%mem=16000MB
#p B2PLYPD3/Def2QZVP 

acrolein

0 1
C  -4.999979  -1.390877   0.905526
O  -3.928591  -0.862598   0.643890
C  -5.193061  -2.820780   1.171172
C  -6.415856  -3.311606   1.389291
H  -4.314240  -3.459075   1.086416
H  -7.296594  -2.649885   1.406193
H  -6.553611  -4.339791   1.520565
H  -5.956114  -0.783022   0.954106
