%chk=/home/boittier/MDCM/nms_sampling/acrolein_geom.xyz.dir/acrolein_1489.chk
%nproc=8
%mem=16000MB
#p B2PLYPD3/Def2QZVP 

acrolein

0 1
C  -5.014944  -1.346470   0.903743
O  -3.927864  -0.892593   0.637392
C  -5.189275  -2.810121   1.178440
C  -6.395434  -3.320370   1.374831
H  -4.386007  -3.457334   1.159311
H  -7.253494  -2.703724   1.446565
H  -6.592290  -4.412736   1.519893
H  -5.993053  -0.708893   1.038901
