%chk=/home/boittier/MDCM/nms_sampling/acrolein_geom.xyz.dir/acrolein_1149.chk
%nproc=8
%mem=16000MB
#p B2PLYPD3/Def2QZVP 

acrolein

0 1
C  -5.007307  -1.375333   0.928678
O  -3.924907  -0.879728   0.624296
C  -5.209048  -2.803013   1.194959
C  -6.404212  -3.328462   1.371106
H  -4.337346  -3.389675   1.071572
H  -7.235714  -2.658336   1.357671
H  -6.539288  -4.321805   1.511227
H  -5.915824  -0.785345   0.997608
