%chk=/home/boittier/MDCM/nms_sampling/acrolein_geom.xyz.dir/acrolein_1754.chk
%nproc=8
%mem=16000MB
#p B2PLYPD3/Def2QZVP 

acrolein

0 1
C  -5.007497  -1.384142   0.905337
O  -3.941588  -0.860162   0.640184
C  -5.193826  -2.837142   1.160572
C  -6.403600  -3.313660   1.392481
H  -4.218563  -3.477723   1.160999
H  -7.310305  -2.630633   1.305927
H  -6.529028  -4.277720   1.561794
H  -5.902879  -0.756414   1.082373

