%chk=/home/boittier/MDCM/nms_sampling/acrolein_geom.xyz.dir/acrolein_707.chk
%nproc=8
%mem=16000MB
#p B2PLYPD3/Def2QZVP 

acrolein

0 1
C  -5.010501  -1.383342   0.900576
O  -3.937961  -0.875596   0.649270
C  -5.188235  -2.802078   1.156063
C  -6.397458  -3.312579   1.397647
H  -4.335409  -3.441467   1.143749
H  -7.224974  -2.685342   1.441946
H  -6.599559  -4.423477   1.497872
H  -5.949356  -0.769297   0.931502
