%chk=/home/boittier/MDCM/nms_sampling/acrolein_geom.xyz.dir/acrolein_1819.chk
%nproc=8
%mem=16000MB
#p B2PLYPD3/Def2QZVP 

acrolein

0 1
C  -5.018832  -1.391591   0.819188
O  -3.954861  -0.849705   0.697845
C  -5.163272  -2.863885   1.149032
C  -6.405498  -3.302620   1.419229
H  -4.235514  -3.427055   1.027700
H  -7.364824  -2.608966   1.634604
H  -6.539325  -4.251577   1.492327
H  -5.802344  -0.744816   0.884877
