%chk=/home/boittier/MDCM/nms_sampling/acrolein_geom.xyz.dir/acrolein_995.chk
%nproc=8
%mem=16000MB
#p B2PLYPD3/Def2QZVP 

acrolein

0 1
C  -4.997857  -1.377092   0.840456
O  -3.926351  -0.877597   0.692144
C  -5.197410  -2.804294   1.134845
C  -6.409861  -3.315309   1.424058
H  -4.325795  -3.402227   1.044162
H  -7.316225  -2.673358   1.553516
H  -6.597142  -4.444883   1.538410
H  -5.960382  -0.792263   0.857531
