%chk=/home/boittier/MDCM/nms_sampling/acrolein_geom.xyz.dir/acrolein_319.chk
%nproc=8
%mem=16000MB
#p B2PLYPD3/Def2QZVP 

acrolein

0 1
C  -5.006274  -1.385179   0.913731
O  -3.938721  -0.859660   0.636216
C  -5.185692  -2.839222   1.175847
C  -6.406960  -3.305261   1.385005
H  -4.283084  -3.448770   1.111148
H  -7.320909  -2.653890   1.382386
H  -6.565269  -4.309853   1.505464
H  -5.904887  -0.796362   0.985599

