%chk=/home/boittier/MDCM/nms_sampling/acrolein_geom.xyz.dir/acrolein_1962.chk
%nproc=8
%mem=16000MB
#p B2PLYPD3/Def2QZVP 

acrolein

0 1
C  -5.007310  -1.410440   0.836309
O  -3.949854  -0.846235   0.714148
C  -5.162960  -2.824283   1.104932
C  -6.407394  -3.315979   1.430145
H  -4.299434  -3.433013   1.018231
H  -7.477926  -2.628665   1.743329
H  -6.479095  -4.318845   1.608088
H  -5.904508  -0.798152   0.610084

