%chk=/home/boittier/MDCM/nms_sampling/acrolein_geom.xyz.dir/acrolein_1471.chk
%nproc=8
%mem=16000MB
#p B2PLYPD3/Def2QZVP 

acrolein

0 1
C  -5.001172  -1.400527   0.846657
O  -3.947852  -0.854031   0.697620
C  -5.189785  -2.833358   1.120073
C  -6.404193  -3.301869   1.440199
H  -4.295573  -3.492093   0.968613
H  -7.280689  -2.685958   1.421410
H  -6.512908  -4.262610   1.616600
H  -5.890794  -0.782537   0.826711

