%chk=/home/boittier/MDCM/nms_sampling/acrolein_geom.xyz.dir/acrolein_592.chk
%nproc=8
%mem=16000MB
#p B2PLYPD3/Def2QZVP 

acrolein

0 1
C  -4.994857  -1.398430   0.914890
O  -3.936480  -0.860217   0.642961
C  -5.197073  -2.827508   1.146057
C  -6.412701  -3.300495   1.396449
H  -4.291924  -3.460132   1.172046
H  -7.306511  -2.655450   1.339698
H  -6.590758  -4.339063   1.580705
H  -5.859651  -0.787250   0.987909
