%chk=/home/boittier/MDCM/nms_sampling/acrolein_geom.xyz.dir/acrolein_670.chk
%nproc=8
%mem=16000MB
#p B2PLYPD3/Def2QZVP 

acrolein

0 1
C  -5.002162  -1.393730   0.894701
O  -3.943357  -0.861538   0.648524
C  -5.185120  -2.827026   1.165890
C  -6.411687  -3.303009   1.395226
H  -4.265675  -3.458171   1.118088
H  -7.276235  -2.639374   1.421017
H  -6.578479  -4.369684   1.494164
H  -5.877947  -0.779974   0.976732
