%chk=/home/boittier/MDCM/nms_sampling/acrolein_geom.xyz.dir/acrolein_1632.chk
%nproc=8
%mem=16000MB
#p B2PLYPD3/Def2QZVP 

acrolein

0 1
C  -5.001164  -1.364504   0.881008
O  -3.927719  -0.881971   0.673796
C  -5.189868  -2.813279   1.136879
C  -6.403069  -3.318630   1.425440
H  -4.422113  -3.401037   1.013777
H  -7.278931  -2.666761   1.419424
H  -6.607483  -4.372198   1.536419
H  -5.984469  -0.787651   0.805158
