%chk=/home/boittier/MDCM/nms_sampling/acrolein_geom.xyz.dir/acrolein_1125.chk
%nproc=8
%mem=16000MB
#p B2PLYPD3/Def2QZVP 

acrolein

0 1
C  -4.996630  -1.393697   0.881276
O  -3.931667  -0.859950   0.680685
C  -5.189889  -2.836983   1.110541
C  -6.422134  -3.295617   1.420437
H  -4.334916  -3.476574   1.070463
H  -7.313444  -2.647033   1.410998
H  -6.595422  -4.326165   1.709991
H  -5.830166  -0.788106   0.839609
