%chk=/home/boittier/MDCM/nms_sampling/acrolein_geom.xyz.dir/acrolein_394.chk
%nproc=8
%mem=16000MB
#p B2PLYPD3/Def2QZVP 

acrolein

0 1
C  -5.008885  -1.372691   0.903457
O  -3.927395  -0.877453   0.647868
C  -5.196262  -2.806473   1.166951
C  -6.408503  -3.319532   1.391237
H  -4.291972  -3.440384   1.069491
H  -7.241619  -2.687303   1.411073
H  -6.585878  -4.384535   1.545412
H  -5.957055  -0.778254   0.932218

