%chk=/home/boittier/MDCM/nms_sampling/acrolein_geom.xyz.dir/acrolein_1366.chk
%nproc=8
%mem=16000MB
#p B2PLYPD3/Def2QZVP 

acrolein

0 1
C  -5.016940  -1.382534   0.855149
O  -3.937031  -0.877952   0.690832
C  -5.204747  -2.797279   1.106330
C  -6.389781  -3.322277   1.433126
H  -4.252627  -3.403720   1.074013
H  -7.182683  -2.708939   1.359838
H  -6.562375  -4.385412   1.703703
H  -5.946908  -0.751075   0.940781
