%chk=/home/boittier/MDCM/nms_sampling/acrolein_geom.xyz.dir/acrolein_1871.chk
%nproc=8
%mem=16000MB
#p B2PLYPD3/Def2QZVP 

acrolein

0 1
C  -5.005197  -1.352093   0.921527
O  -3.921404  -0.882789   0.617325
C  -5.211383  -2.812381   1.222525
C  -6.414023  -3.340583   1.374288
H  -4.265331  -3.480093   1.025907
H  -7.249762  -2.626994   1.318672
H  -6.525497  -4.236996   1.373546
H  -5.931163  -0.786413   1.052195

