%chk=/home/boittier/MDCM/nms_sampling/acrolein_geom.xyz.dir/acrolein_198.chk
%nproc=8
%mem=16000MB
#p B2PLYPD3/Def2QZVP 

acrolein

0 1
C  -5.001478  -1.398772   0.890856
O  -3.937891  -0.855299   0.660419
C  -5.189869  -2.829087   1.145504
C  -6.411600  -3.304313   1.401111
H  -4.232281  -3.448931   1.123946
H  -7.274249  -2.659415   1.489755
H  -6.595235  -4.342046   1.544072
H  -5.942037  -0.808069   0.881884
