%chk=/home/boittier/MDCM/nms_sampling/acrolein_geom.xyz.dir/acrolein_134.chk
%nproc=8
%mem=16000MB
#p B2PLYPD3/Def2QZVP 

acrolein

0 1
C  -5.007460  -1.373970   0.899402
O  -3.926171  -0.879463   0.648003
C  -5.206233  -2.804328   1.164793
C  -6.404778  -3.316469   1.384805
H  -4.297664  -3.438357   1.130478
H  -7.225283  -2.683125   1.479235
H  -6.592212  -4.393410   1.538207
H  -5.923408  -0.790778   0.948458

