%chk=/home/boittier/MDCM/nms_sampling/acrolein_geom.xyz.dir/acrolein_2366.chk
%nproc=8
%mem=16000MB
#p B2PLYPD3/Def2QZVP 

acrolein

0 1
C  -5.005197  -1.401344   0.823864
O  -3.946744  -0.880934   0.707879
C  -5.185124  -2.764516   1.114431
C  -6.382260  -3.330860   1.432744
H  -4.329381  -3.337591   1.090910
H  -7.266652  -2.702827   1.683696
H  -6.673239  -4.489179   1.525461
H  -5.981107  -0.743387   0.772731
