%chk=/home/boittier/MDCM/nms_sampling/acrolein_geom.xyz.dir/acrolein_1276.chk
%nproc=8
%mem=16000MB
#p B2PLYPD3/Def2QZVP 

acrolein

0 1
C  -4.993473  -1.409807   0.915792
O  -3.947368  -0.846458   0.634741
C  -5.183116  -2.842183   1.159189
C  -6.411687  -3.287711   1.372038
H  -4.261500  -3.486034   1.216446
H  -7.285422  -2.657871   1.373880
H  -6.591417  -4.347054   1.642725
H  -5.931807  -0.810080   1.091141
