%chk=/home/boittier/MDCM/nms_sampling/acrolein_geom.xyz.dir/acrolein_1667.chk
%nproc=8
%mem=16000MB
#p B2PLYPD3/Def2QZVP 

acrolein

0 1
C  -5.020292  -1.371679   0.869206
O  -3.942393  -0.885729   0.679429
C  -5.190279  -2.790710   1.123582
C  -6.379525  -3.334437   1.411999
H  -4.353443  -3.380602   1.123482
H  -7.273416  -2.693362   1.528810
H  -6.559549  -4.363108   1.614443
H  -5.919394  -0.741474   0.859557
