%chk=/home/boittier/MDCM/nms_sampling/acrolein_geom.xyz.dir/acrolein_1547.chk
%nproc=8
%mem=16000MB
#p B2PLYPD3/Def2QZVP 

acrolein

0 1
C  -5.025356  -1.371571   0.858139
O  -3.946853  -0.885507   0.691847
C  -5.186177  -2.797952   1.104329
C  -6.378393  -3.320428   1.419142
H  -4.372593  -3.395179   1.124883
H  -7.202871  -2.671120   1.527132
H  -6.550243  -4.423681   1.699831
H  -5.899772  -0.756182   0.854287
