%chk=/home/boittier/MDCM/nms_sampling/acrolein_geom.xyz.dir/acrolein_1603.chk
%nproc=8
%mem=16000MB
#p B2PLYPD3/Def2QZVP 

acrolein

0 1
C  -5.015827  -1.371800   0.926991
O  -3.944129  -0.878139   0.633237
C  -5.185190  -2.804493   1.151288
C  -6.379063  -3.321229   1.373241
H  -4.381394  -3.413570   1.244976
H  -7.215265  -2.704419   1.423032
H  -6.548779  -4.376388   1.617618
H  -6.049162  -0.780277   1.007070

