%chk=/home/boittier/MDCM/nms_sampling/acrolein_geom.xyz.dir/acrolein_435.chk
%nproc=8
%mem=16000MB
#p B2PLYPD3/Def2QZVP 

acrolein

0 1
C  -5.007652  -1.389863   0.869354
O  -3.939809  -0.859172   0.674520
C  -5.182037  -2.836959   1.125678
C  -6.403801  -3.300141   1.414942
H  -4.305212  -3.446352   1.129832
H  -7.299869  -2.665613   1.411479
H  -6.564753  -4.357233   1.633987
H  -5.949027  -0.770991   0.969102

