%chk=/home/boittier/MDCM/nms_sampling/acrolein_geom.xyz.dir/acrolein_1093.chk
%nproc=8
%mem=16000MB
#p B2PLYPD3/Def2QZVP 

acrolein

0 1
C  -4.990682  -1.414394   0.885506
O  -3.932933  -0.847687   0.675937
C  -5.187389  -2.827593   1.111580
C  -6.421587  -3.302012   1.428888
H  -4.284149  -3.433275   1.082359
H  -7.388033  -2.622006   1.349517
H  -6.593555  -4.353089   1.650759
H  -5.905300  -0.833372   0.861800
