%chk=/home/boittier/MDCM/nms_sampling/acrolein_geom.xyz.dir/acrolein_2673.chk
%nproc=8
%mem=16000MB
#p B2PLYPD3/Def2QZVP 

acrolein

0 1
C  -5.009114  -1.395216   0.857578
O  -3.965180  -0.857688   0.688970
C  -5.169665  -2.829981   1.136511
C  -6.388301  -3.298029   1.400356
H  -4.386305  -3.489602   0.987756
H  -7.265748  -2.626960   1.558984
H  -6.494073  -4.332548   1.729489
H  -5.870545  -0.838136   0.833307
