%chk=/home/boittier/MDCM/nms_sampling/acrolein_geom.xyz.dir/acrolein_516.chk
%nproc=8
%mem=16000MB
#p B2PLYPD3/Def2QZVP 

acrolein

0 1
C  -5.000746  -1.402045   0.897232
O  -3.939598  -0.854954   0.661842
C  -5.190366  -2.828740   1.132433
C  -6.410856  -3.301511   1.399922
H  -4.258504  -3.472954   1.121640
H  -7.290850  -2.646924   1.426171
H  -6.563264  -4.350282   1.662453
H  -5.917193  -0.783694   0.904808

