%chk=/home/boittier/MDCM/nms_sampling/acrolein_geom.xyz.dir/acrolein_749.chk
%nproc=8
%mem=16000MB
#p B2PLYPD3/Def2QZVP 

acrolein

0 1
C  -5.002546  -1.376721   0.877650
O  -3.929118  -0.872112   0.675307
C  -5.199688  -2.814263   1.114598
C  -6.403484  -3.319998   1.411562
H  -4.320432  -3.440372   1.162330
H  -7.292461  -2.671716   1.463929
H  -6.561666  -4.330592   1.667227
H  -5.972939  -0.786176   0.908895
