%chk=/home/boittier/MDCM/nms_sampling/acrolein_geom.xyz.dir/acrolein_1320.chk
%nproc=8
%mem=16000MB
#p B2PLYPD3/Def2QZVP 

acrolein

0 1
C  -4.994954  -1.401564   0.926308
O  -3.946177  -0.854181   0.633758
C  -5.181283  -2.834060   1.147562
C  -6.410557  -3.306192   1.379353
H  -4.283518  -3.440109   1.243966
H  -7.384939  -2.654109   1.375028
H  -6.575359  -4.292663   1.619166
H  -5.864762  -0.775484   1.028164

