%chk=/home/boittier/MDCM/nms_sampling/acrolein_geom.xyz.dir/acrolein_2507.chk
%nproc=8
%mem=16000MB
#p B2PLYPD3/Def2QZVP 

acrolein

0 1
C  -5.036376  -1.328176   0.826449
O  -3.915273  -0.905003   0.714445
C  -5.207521  -2.795681   1.089129
C  -6.398736  -3.351914   1.454414
H  -4.279823  -3.379606   1.099926
H  -7.178064  -2.725728   1.592519
H  -6.469275  -4.336413   1.549405
H  -5.982223  -0.671015   0.745711
