%chk=/home/boittier/MDCM/nms_sampling/acrolein_geom.xyz.dir/acrolein_658.chk
%nproc=8
%mem=16000MB
#p B2PLYPD3/Def2QZVP 

acrolein

0 1
C  -5.009626  -1.382333   0.870674
O  -3.938873  -0.871669   0.679053
C  -5.184999  -2.805842   1.128063
C  -6.399267  -3.318518   1.411531
H  -4.313261  -3.441628   1.064455
H  -7.283471  -2.656525   1.457873
H  -6.568422  -4.399863   1.667439
H  -5.961148  -0.784900   0.885861

