%chk=/home/boittier/MDCM/nms_sampling/acrolein_geom.xyz.dir/acrolein_2283.chk
%nproc=8
%mem=16000MB
#p B2PLYPD3/Def2QZVP 

acrolein

0 1
C  -5.001231  -1.389351   0.947883
O  -3.920869  -0.875363   0.597511
C  -5.224562  -2.807095   1.243173
C  -6.405106  -3.301003   1.358307
H  -4.351075  -3.397908   1.052135
H  -7.166007  -2.697750   1.357534
H  -6.595096  -4.389564   1.284702
H  -5.861131  -0.852703   1.017291
