%chk=/home/boittier/MDCM/nms_sampling/acrolein_geom.xyz.dir/acrolein_648.chk
%nproc=8
%mem=16000MB
#p B2PLYPD3/Def2QZVP 

acrolein

0 1
C  -5.003730  -1.374908   0.908513
O  -3.932186  -0.875974   0.646070
C  -5.189767  -2.816071   1.143673
C  -6.403789  -3.314339   1.397483
H  -4.374287  -3.422031   1.184681
H  -7.280782  -2.656392   1.357330
H  -6.569881  -4.385127   1.580226
H  -5.963486  -0.755336   0.998124

