%chk=/home/boittier/MDCM/nms_sampling/acrolein_geom.xyz.dir/acrolein_1781.chk
%nproc=8
%mem=16000MB
#p B2PLYPD3/Def2QZVP 

acrolein

0 1
C  -4.985854  -1.395052   0.927384
O  -3.924027  -0.859917   0.623263
C  -5.204597  -2.829881   1.178895
C  -6.423279  -3.296773   1.383632
H  -4.317018  -3.472667   1.196414
H  -7.270826  -2.659709   1.374028
H  -6.617593  -4.343107   1.415149
H  -5.935645  -0.822209   1.013470

