%chk=/home/boittier/MDCM/nms_sampling/acrolein_geom.xyz.dir/acrolein_502.chk
%nproc=8
%mem=16000MB
#p B2PLYPD3/Def2QZVP 

acrolein

0 1
C  -5.000252  -1.385447   0.871439
O  -3.928495  -0.867994   0.680018
C  -5.188913  -2.818800   1.120250
C  -6.418845  -3.310782   1.412115
H  -4.290762  -3.450862   1.081817
H  -7.292557  -2.638075   1.429233
H  -6.612350  -4.392519   1.714275
H  -5.933218  -0.765306   0.911513

