%chk=/home/boittier/MDCM/nms_sampling/acrolein_geom.xyz.dir/acrolein_1109.chk
%nproc=8
%mem=16000MB
#p B2PLYPD3/Def2QZVP 

acrolein

0 1
C  -5.017054  -1.372923   0.860467
O  -3.945871  -0.872780   0.693712
C  -5.181521  -2.820454   1.089147
C  -6.385307  -3.316015   1.425764
H  -4.325877  -3.458548   1.159242
H  -7.201840  -2.674626   1.483096
H  -6.569032  -4.347761   1.738043
H  -6.024721  -0.738963   0.869876
