%chk=/home/boittier/MDCM/nms_sampling/acrolein_geom.xyz.dir/acrolein_2271.chk
%nproc=8
%mem=16000MB
#p B2PLYPD3/Def2QZVP 

acrolein

0 1
C  -4.992846  -1.435917   0.811199
O  -3.959959  -0.829651   0.726208
C  -5.161579  -2.844038   1.125805
C  -6.408801  -3.298173   1.428652
H  -4.228137  -3.418931   0.836882
H  -7.492524  -2.592962   1.687391
H  -6.546249  -4.335908   1.691401
H  -5.909761  -0.782868   0.657954
