%chk=/home/boittier/MDCM/nms_sampling/acrolein_geom.xyz.dir/acrolein_424.chk
%nproc=8
%mem=16000MB
#p B2PLYPD3/Def2QZVP 

acrolein

0 1
C  -5.000339  -1.391574   0.897653
O  -3.943385  -0.860771   0.647594
C  -5.184273  -2.836981   1.161057
C  -6.410960  -3.297294   1.392927
H  -4.291142  -3.442265   1.143055
H  -7.269181  -2.651256   1.418615
H  -6.600525  -4.348823   1.521999
H  -5.874087  -0.790733   0.988613

