%chk=/home/boittier/MDCM/nms_sampling/acrolein_geom.xyz.dir/acrolein_2388.chk
%nproc=8
%mem=16000MB
#p B2PLYPD3/Def2QZVP 

acrolein

0 1
C  -4.979281  -1.409593   0.802168
O  -3.927250  -0.841904   0.715317
C  -5.196291  -2.861294   1.126232
C  -6.421960  -3.290609   1.446432
H  -4.364925  -3.441467   0.991173
H  -7.540009  -2.679292   1.581344
H  -6.500494  -4.241955   1.502444
H  -5.900524  -0.755808   0.845799
