%chk=/home/boittier/MDCM/nms_sampling/acrolein_geom.xyz.dir/acrolein_2648.chk
%nproc=8
%mem=16000MB
#p B2PLYPD3/Def2QZVP 

acrolein

0 1
C  -5.000763  -1.389481   0.843811
O  -3.928341  -0.845902   0.702620
C  -5.173302  -2.860189   1.105859
C  -6.436059  -3.296787   1.420924
H  -4.278540  -3.539854   1.129352
H  -7.338273  -2.647725   1.735404
H  -6.501491  -4.276685   1.587046
H  -5.999523  -0.747802   0.706875

