%chk=/home/boittier/MDCM/nms_sampling/acrolein_geom.xyz.dir/acrolein_709.chk
%nproc=8
%mem=16000MB
#p B2PLYPD3/Def2QZVP 

acrolein

0 1
C  -4.992006  -1.399155   0.883764
O  -3.929284  -0.857690   0.674774
C  -5.196179  -2.826799   1.123185
C  -6.419130  -3.303367   1.410621
H  -4.301422  -3.441314   1.082470
H  -7.320820  -2.654619   1.456954
H  -6.593104  -4.339165   1.670877
H  -5.918134  -0.814180   0.846703

