%chk=/home/boittier/MDCM/nms_sampling/acrolein_geom.xyz.dir/acrolein_815.chk
%nproc=8
%mem=16000MB
#p B2PLYPD3/Def2QZVP 

acrolein

0 1
C  -5.001729  -1.394731   0.876650
O  -3.942124  -0.856759   0.677236
C  -5.180076  -2.834286   1.118902
C  -6.411804  -3.298011   1.422902
H  -4.291704  -3.468471   1.081486
H  -7.276976  -2.652313   1.382357
H  -6.600970  -4.349195   1.650958
H  -5.911689  -0.812942   0.894999

