%chk=/home/boittier/MDCM/nms_sampling/acrolein_geom.xyz.dir/acrolein_1359.chk
%nproc=8
%mem=16000MB
#p B2PLYPD3/Def2QZVP 

acrolein

0 1
C  -5.029651  -1.360168   0.848770
O  -3.943226  -0.887891   0.689209
C  -5.180728  -2.796659   1.137921
C  -6.389015  -3.332017   1.411302
H  -4.271275  -3.397085   1.036033
H  -7.241409  -2.681916   1.588530
H  -6.539708  -4.429301   1.595507
H  -5.926368  -0.728041   0.836312

