%chk=/home/boittier/MDCM/nms_sampling/acrolein_geom.xyz.dir/acrolein_2288.chk
%nproc=8
%mem=16000MB
#p B2PLYPD3/Def2QZVP 

acrolein

0 1
C  -5.033251  -1.374231   0.867309
O  -3.955555  -0.859252   0.703599
C  -5.175397  -2.866736   1.072907
C  -6.377914  -3.300203   1.463441
H  -4.289387  -3.436533   1.030798
H  -7.272208  -2.592078   1.356984
H  -6.496387  -4.283359   1.684556
H  -5.867730  -0.742322   0.710037

