%chk=/home/boittier/MDCM/nms_sampling/acrolein_geom.xyz.dir/acrolein_714.chk
%nproc=8
%mem=16000MB
#p B2PLYPD3/Def2QZVP 

acrolein

0 1
C  -5.007096  -1.377514   0.869497
O  -3.925738  -0.877103   0.674854
C  -5.195438  -2.804775   1.132507
C  -6.412697  -3.320073   1.415530
H  -4.291724  -3.436337   1.087208
H  -7.242644  -2.653680   1.420364
H  -6.607022  -4.401577   1.611302
H  -5.940184  -0.759792   0.934617
