%chk=/home/boittier/MDCM/nms_sampling/acrolein_geom.xyz.dir/acrolein_781.chk
%nproc=8
%mem=16000MB
#p B2PLYPD3/Def2QZVP 

acrolein

0 1
C  -4.994164  -1.393377   0.912139
O  -3.933112  -0.861760   0.644917
C  -5.198854  -2.828720   1.163644
C  -6.416959  -3.302693   1.386052
H  -4.324365  -3.438611   1.093705
H  -7.259321  -2.654262   1.435484
H  -6.545998  -4.323758   1.563317
H  -5.903049  -0.809120   0.907985

