%chk=/home/boittier/MDCM/nms_sampling/acrolein_geom.xyz.dir/acrolein_613.chk
%nproc=8
%mem=16000MB
#p B2PLYPD3/Def2QZVP 

acrolein

0 1
C  -5.000228  -1.390902   0.871573
O  -3.931298  -0.856869   0.678527
C  -5.190909  -2.837072   1.134630
C  -6.409670  -3.304343   1.412058
H  -4.335392  -3.471626   1.035655
H  -7.311804  -2.650313   1.477187
H  -6.562855  -4.294304   1.629989
H  -5.962434  -0.796681   0.848570
