%chk=/home/boittier/MDCM/nms_sampling/acrolein_geom.xyz.dir/acrolein_1954.chk
%nproc=8
%mem=16000MB
#p B2PLYPD3/Def2QZVP 

acrolein

0 1
C  -5.001189  -1.406127   0.953932
O  -3.945348  -0.857140   0.608422
C  -5.211336  -2.822316   1.169612
C  -6.406669  -3.299316   1.347698
H  -4.116541  -3.493860   1.348269
H  -7.175425  -2.687511   1.454507
H  -6.587114  -4.340725   1.568240
H  -5.860274  -0.773763   1.066903
