%chk=/home/boittier/MDCM/nms_sampling/acrolein_geom.xyz.dir/acrolein_94.chk
%nproc=8
%mem=16000MB
#p B2PLYPD3/Def2QZVP 

acrolein

0 1
C  -5.007591  -1.376823   0.898920
O  -3.927789  -0.877707   0.651012
C  -5.198510  -2.810619   1.163827
C  -6.405282  -3.314817   1.395563
H  -4.318305  -3.420700   1.067778
H  -7.246116  -2.666978   1.408262
H  -6.607736  -4.393658   1.540972
H  -5.920479  -0.759556   0.931307
