%chk=/home/boittier/MDCM/nms_sampling/acrolein_geom.xyz.dir/acrolein_256.chk
%nproc=8
%mem=16000MB
#p B2PLYPD3/Def2QZVP 

acrolein

0 1
C  -5.004407  -1.399103   0.883427
O  -3.939133  -0.861715   0.675373
C  -5.197529  -2.819528   1.114626
C  -6.400992  -3.302569   1.415303
H  -4.308732  -3.438883   1.110179
H  -7.230439  -2.671203   1.415585
H  -6.560588  -4.357947   1.690197
H  -5.917351  -0.803704   0.880622
