%chk=/home/boittier/MDCM/nms_sampling/acrolein_geom.xyz.dir/acrolein_72.chk
%nproc=8
%mem=16000MB
#p B2PLYPD3/Def2QZVP 

acrolein

0 1
C  -5.017870  -1.371487   0.927746
O  -3.941120  -0.878360   0.634888
C  -5.186274  -2.810672   1.153775
C  -6.390980  -3.317309   1.389873
H  -4.335567  -3.436571   1.159160
H  -7.224037  -2.650686   1.316258
H  -6.577696  -4.388448   1.583840
H  -5.925385  -0.777035   0.985253

