%chk=/home/boittier/MDCM/nms_sampling/acrolein_geom.xyz.dir/acrolein_676.chk
%nproc=8
%mem=16000MB
#p B2PLYPD3/Def2QZVP 

acrolein

0 1
C  -4.997605  -1.394843   0.877813
O  -3.926883  -0.861540   0.671007
C  -5.198155  -2.824941   1.147692
C  -6.415281  -3.304154   1.402396
H  -4.331500  -3.459054   1.029628
H  -7.270811  -2.643365   1.480437
H  -6.566192  -4.353089   1.616147
H  -5.951567  -0.780170   0.868971

