%chk=/home/boittier/MDCM/nms_sampling/acrolein_geom.xyz.dir/acrolein_1440.chk
%nproc=8
%mem=16000MB
#p B2PLYPD3/Def2QZVP 

acrolein

0 1
C  -5.021742  -1.362494   0.924689
O  -3.930948  -0.882657   0.624935
C  -5.184173  -2.803845   1.188173
C  -6.394120  -3.334851   1.362649
H  -4.305030  -3.394581   1.184331
H  -7.278594  -2.682921   1.501515
H  -6.582149  -4.369168   1.472458
H  -6.006030  -0.729915   0.980601
