%chk=/home/boittier/MDCM/nms_sampling/acrolein_geom.xyz.dir/acrolein_2381.chk
%nproc=8
%mem=16000MB
#p B2PLYPD3/Def2QZVP 

acrolein

0 1
C  -4.987109  -1.415261   0.926881
O  -3.962130  -0.833214   0.620872
C  -5.162264  -2.855406   1.216275
C  -6.407785  -3.292273   1.343732
H  -4.358183  -3.507146   1.041653
H  -7.374954  -2.665778   1.457079
H  -6.492542  -4.205547   1.569151
H  -5.982751  -0.845608   1.013959

