%chk=/home/boittier/MDCM/nms_sampling/acrolein_geom.xyz.dir/acrolein_2309.chk
%nproc=8
%mem=16000MB
#p B2PLYPD3/Def2QZVP 

acrolein

0 1
C  -4.983145  -1.405684   0.950699
O  -3.916490  -0.857629   0.595541
C  -5.194411  -2.822859   1.211641
C  -6.430804  -3.285224   1.323089
H  -4.434515  -3.484524   1.272289
H  -7.343000  -2.633562   1.405891
H  -6.626492  -4.446352   1.584135
H  -5.921833  -0.845521   1.213782
