%chk=/home/boittier/MDCM/nms_sampling/acrolein_geom.xyz.dir/acrolein_1252.chk
%nproc=8
%mem=16000MB
#p B2PLYPD3/Def2QZVP 

acrolein

0 1
C  -4.992200  -1.393824   0.878693
O  -3.936556  -0.854162   0.681708
C  -5.187694  -2.840968   1.098820
C  -6.414308  -3.305650   1.414559
H  -4.350351  -3.472372   1.162167
H  -7.332742  -2.620864   1.463962
H  -6.535801  -4.264411   1.743084
H  -5.948535  -0.797953   0.873622

