%chk=/home/boittier/MDCM/nms_sampling/acrolein_geom.xyz.dir/acrolein_395.chk
%nproc=8
%mem=16000MB
#p B2PLYPD3/Def2QZVP 

acrolein

0 1
C  -5.001471  -1.383095   0.899653
O  -3.928952  -0.874036   0.650928
C  -5.204747  -2.808477   1.152737
C  -6.408474  -3.316389   1.400865
H  -4.295902  -3.414867   1.143235
H  -7.251456  -2.652001   1.436134
H  -6.580166  -4.378491   1.498183
H  -5.912113  -0.791983   0.924231
