%chk=/home/boittier/MDCM/nms_sampling/acrolein_geom.xyz.dir/acrolein_1088.chk
%nproc=8
%mem=16000MB
#p B2PLYPD3/Def2QZVP 

acrolein

0 1
C  -4.995833  -1.383713   0.911069
O  -3.933982  -0.853838   0.629130
C  -5.182821  -2.850473   1.194548
C  -6.423912  -3.309566   1.358905
H  -4.260444  -3.440424   1.162240
H  -7.340925  -2.629685   1.504927
H  -6.537570  -4.264500   1.499870
H  -5.971658  -0.800175   1.035401

