%chk=/home/boittier/MDCM/nms_sampling/acrolein_geom.xyz.dir/acrolein_122.chk
%nproc=8
%mem=16000MB
#p B2PLYPD3/Def2QZVP 

acrolein

0 1
C  -5.005494  -1.370666   0.869136
O  -3.936679  -0.870882   0.678787
C  -5.186251  -2.832283   1.134055
C  -6.405940  -3.309235   1.410334
H  -4.323580  -3.452992   1.048555
H  -7.295947  -2.659679   1.477272
H  -6.582828  -4.332191   1.642527
H  -5.913228  -0.783140   0.873186
