%chk=/home/boittier/MDCM/nms_sampling/acrolein_geom.xyz.dir/acrolein_118.chk
%nproc=8
%mem=16000MB
#p B2PLYPD3/Def2QZVP 

acrolein

0 1
C  -5.013652  -1.376712   0.901352
O  -3.941211  -0.875316   0.648907
C  -5.196023  -2.806722   1.152441
C  -6.389286  -3.321255   1.396553
H  -4.303840  -3.439145   1.162408
H  -7.257511  -2.660027   1.432585
H  -6.532752  -4.365618   1.520140
H  -5.932621  -0.783599   0.950926
