%chk=/home/boittier/MDCM/nms_sampling/acrolein_geom.xyz.dir/acrolein_971.chk
%nproc=8
%mem=16000MB
#p B2PLYPD3/Def2QZVP 

acrolein

0 1
C  -4.988817  -1.408687   0.911591
O  -3.931233  -0.851863   0.631789
C  -5.192239  -2.831596   1.189251
C  -6.420362  -3.287026   1.364972
H  -4.336429  -3.474955   1.160065
H  -7.326464  -2.666532   1.518720
H  -6.607398  -4.381843   1.478039
H  -5.905659  -0.835766   0.989318
