%chk=/home/boittier/MDCM/nms_sampling/acrolein_geom.xyz.dir/acrolein_417.chk
%nproc=8
%mem=16000MB
#p B2PLYPD3/Def2QZVP 

acrolein

0 1
C  -4.991504  -1.397774   0.907243
O  -3.932202  -0.859830   0.642003
C  -5.190518  -2.828640   1.157757
C  -6.418678  -3.299190   1.387011
H  -4.338193  -3.461730   1.168576
H  -7.302687  -2.649064   1.369661
H  -6.609722  -4.351146   1.582053
H  -5.909793  -0.786433   1.035552
