%chk=/home/boittier/MDCM/nms_sampling/acrolein_geom.xyz.dir/acrolein_2211.chk
%nproc=8
%mem=16000MB
#p B2PLYPD3/Def2QZVP 

acrolein

0 1
C  -5.008192  -1.410593   0.972935
O  -3.954522  -0.833016   0.595396
C  -5.178620  -2.872757   1.194916
C  -6.402330  -3.296138   1.331088
H  -4.135827  -3.462013   1.192925
H  -7.338464  -2.598470   1.256263
H  -6.520747  -4.240871   1.725462
H  -5.948783  -0.753315   1.162543

