%chk=/home/boittier/MDCM/nms_sampling/acrolein_geom.xyz.dir/acrolein_2557.chk
%nproc=8
%mem=16000MB
#p B2PLYPD3/Def2QZVP 

acrolein

0 1
C  -4.991159  -1.397200   0.888919
O  -3.937718  -0.851414   0.648371
C  -5.185086  -2.830706   1.187631
C  -6.406934  -3.312834   1.401697
H  -4.298388  -3.419491   0.991007
H  -7.520610  -2.630101   1.348211
H  -6.509509  -4.341759   1.442409
H  -5.970742  -0.828282   0.978411
