%chk=/home/boittier/MDCM/nms_sampling/acrolein_geom.xyz.dir/acrolein_2253.chk
%nproc=8
%mem=16000MB
#p B2PLYPD3/Def2QZVP 

acrolein

0 1
C  -5.035601  -1.374586   0.978463
O  -3.935421  -0.883811   0.597381
C  -5.202707  -2.768304   1.169757
C  -6.354757  -3.355488   1.375457
H  -4.327948  -3.338551   1.216152
H  -7.245923  -2.675011   1.084049
H  -6.483721  -4.389180   1.590661
H  -6.120989  -0.788532   1.129704
