%chk=/home/boittier/MDCM/nms_sampling/acrolein_geom.xyz.dir/acrolein_1876.chk
%nproc=8
%mem=16000MB
#p B2PLYPD3/Def2QZVP 

acrolein

0 1
C  -5.000535  -1.353493   0.911845
O  -3.906219  -0.900756   0.633027
C  -5.220629  -2.790753   1.218710
C  -6.413458  -3.322057   1.359232
H  -4.360291  -3.459328   0.953423
H  -7.048760  -2.685899   1.491530
H  -6.694357  -4.442168   1.499594
H  -6.044693  -0.692320   0.918869
