%chk=/home/boittier/MDCM/nms_sampling/acrolein_geom.xyz.dir/acrolein_500.chk
%nproc=8
%mem=16000MB
#p B2PLYPD3/Def2QZVP 

acrolein

0 1
C  -5.002520  -1.389781   0.886708
O  -3.939882  -0.863531   0.666258
C  -5.191081  -2.829574   1.131544
C  -6.409856  -3.302372   1.411491
H  -4.290660  -3.451908   1.096542
H  -7.226634  -2.673962   1.363892
H  -6.563778  -4.337861   1.643477
H  -5.916913  -0.770398   0.943296
