%chk=/home/boittier/MDCM/nms_sampling/acrolein_geom.xyz.dir/acrolein_992.chk
%nproc=8
%mem=16000MB
#p B2PLYPD3/Def2QZVP 

acrolein

0 1
C  -5.012453  -1.381415   0.834961
O  -3.923383  -0.880262   0.697997
C  -5.205659  -2.789901   1.123099
C  -6.392597  -3.331646   1.431796
H  -4.327154  -3.392563   1.060055
H  -7.254818  -2.661141   1.546916
H  -6.584977  -4.399359   1.552674
H  -6.003981  -0.741148   0.853619

