%chk=/home/boittier/MDCM/nms_sampling/acrolein_geom.xyz.dir/acrolein_1000.chk
%nproc=8
%mem=16000MB
#p B2PLYPD3/Def2QZVP 

acrolein

0 1
C  -5.022376  -1.373930   0.867950
O  -3.931854  -0.880768   0.677357
C  -5.196767  -2.798114   1.132590
C  -6.388982  -3.328133   1.423244
H  -4.275110  -3.396066   1.036467
H  -7.216588  -2.664893   1.362771
H  -6.572464  -4.419712   1.618137
H  -5.995830  -0.737135   0.930121
