%chk=/home/boittier/MDCM/nms_sampling/acrolein_geom.xyz.dir/acrolein_966.chk
%nproc=8
%mem=16000MB
#p B2PLYPD3/Def2QZVP 

acrolein

0 1
C  -5.006495  -1.391930   0.905059
O  -3.942546  -0.850738   0.635302
C  -5.171222  -2.849730   1.166177
C  -6.413310  -3.294314   1.387244
H  -4.296087  -3.460961   1.202745
H  -7.272416  -2.674028   1.320315
H  -6.550359  -4.323144   1.530576
H  -5.984686  -0.806472   1.127120

