%chk=/home/boittier/MDCM/nms_sampling/acrolein_geom.xyz.dir/acrolein_2354.chk
%nproc=8
%mem=16000MB
#p B2PLYPD3/Def2QZVP 

acrolein

0 1
C  -4.995727  -1.406509   0.969573
O  -3.959089  -0.844505   0.590303
C  -5.193937  -2.863359   1.218970
C  -6.401439  -3.274469   1.365015
H  -4.249326  -3.457614   1.132026
H  -7.226657  -2.673995   1.239461
H  -6.525784  -4.290900   1.352584
H  -5.841755  -0.852326   1.051838

