%chk=/home/boittier/MDCM/nms_sampling/acrolein_geom.xyz.dir/acrolein_1070.chk
%nproc=8
%mem=16000MB
#p B2PLYPD3/Def2QZVP 

acrolein

0 1
C  -5.007841  -1.377105   0.869870
O  -3.930754  -0.871739   0.687186
C  -5.195508  -2.828309   1.119133
C  -6.400086  -3.308191   1.437771
H  -4.381203  -3.469610   1.009059
H  -7.317274  -2.644875   1.455997
H  -6.572028  -4.324328   1.554140
H  -5.871732  -0.750997   0.741367
