%chk=/home/boittier/MDCM/nms_sampling/acrolein_geom.xyz.dir/acrolein_1805.chk
%nproc=8
%mem=16000MB
#p B2PLYPD3/Def2QZVP 

acrolein

0 1
C  -4.967570  -1.414403   0.967089
O  -3.926263  -0.839338   0.594325
C  -5.177684  -2.852731   1.210304
C  -6.453495  -3.276748   1.328430
H  -4.363916  -3.521639   1.151689
H  -7.437014  -2.664447   1.267515
H  -6.607349  -4.328347   1.682076
H  -5.895835  -0.847555   1.172816
