%chk=/home/boittier/MDCM/nms_sampling/acrolein_geom.xyz.dir/acrolein_2539.chk
%nproc=8
%mem=16000MB
#p B2PLYPD3/Def2QZVP 

acrolein

0 1
C  -5.030260  -1.340502   0.857234
O  -3.943990  -0.890301   0.693695
C  -5.189392  -2.801768   1.145039
C  -6.390911  -3.340437   1.408633
H  -4.244834  -3.479602   0.901113
H  -7.180450  -2.656354   1.626682
H  -6.466069  -4.337007   1.635120
H  -5.942247  -0.789111   0.684726
