%chk=/home/boittier/MDCM/nms_sampling/acrolein_geom.xyz.dir/acrolein_783.chk
%nproc=8
%mem=16000MB
#p B2PLYPD3/Def2QZVP 

acrolein

0 1
C  -4.999298  -1.388779   0.877003
O  -3.935863  -0.867408   0.669869
C  -5.198558  -2.816099   1.148695
C  -6.407843  -3.306830   1.406174
H  -4.290815  -3.450434   1.038246
H  -7.292847  -2.671683   1.466688
H  -6.580725  -4.370278   1.581219
H  -5.879878  -0.809795   0.879200

