%chk=/home/boittier/MDCM/nms_sampling/acrolein_geom.xyz.dir/acrolein_1968.chk
%nproc=8
%mem=16000MB
#p B2PLYPD3/Def2QZVP 

acrolein

0 1
C  -5.010478  -1.335699   0.916299
O  -3.907958  -0.899124   0.640867
C  -5.215716  -2.784833   1.132762
C  -6.401670  -3.342824   1.401242
H  -4.263101  -3.448309   1.267186
H  -7.257471  -2.752736   1.324574
H  -6.591765  -4.416631   1.563456
H  -6.115721  -0.754155   1.033607

