%chk=/home/boittier/MDCM/nms_sampling/acrolein_geom.xyz.dir/acrolein_677.chk
%nproc=8
%mem=16000MB
#p B2PLYPD3/Def2QZVP 

acrolein

0 1
C  -5.007706  -1.372567   0.896049
O  -3.931531  -0.878634   0.654243
C  -5.195207  -2.802566   1.152745
C  -6.398043  -3.322227   1.392836
H  -4.335736  -3.436896   1.135441
H  -7.302365  -2.670717   1.482616
H  -6.565339  -4.394737   1.551036
H  -5.959000  -0.780323   0.916970
