%chk=/home/boittier/MDCM/nms_sampling/acrolein_geom.xyz.dir/acrolein_2121.chk
%nproc=8
%mem=16000MB
#p B2PLYPD3/Def2QZVP 

acrolein

0 1
C  -4.990570  -1.388535   0.962270
O  -3.940388  -0.848186   0.598980
C  -5.184655  -2.872261   1.191011
C  -6.434120  -3.291117   1.346148
H  -4.200845  -3.466968   1.311959
H  -7.439775  -2.700658   1.467097
H  -6.521231  -4.221096   1.447921
H  -5.787549  -0.759641   1.028212

