%chk=/home/boittier/MDCM/nms_sampling/acrolein_geom.xyz.dir/acrolein_663.chk
%nproc=8
%mem=16000MB
#p B2PLYPD3/Def2QZVP 

acrolein

0 1
C  -5.006494  -1.388383   0.908353
O  -3.937959  -0.863846   0.642556
C  -5.190841  -2.817816   1.164980
C  -6.404415  -3.315368   1.381265
H  -4.301107  -3.452303   1.154448
H  -7.284589  -2.676176   1.473102
H  -6.535790  -4.309210   1.535963
H  -5.932619  -0.799577   0.950939
