%chk=/home/boittier/MDCM/nms_sampling/acrolein_geom.xyz.dir/acrolein_165.chk
%nproc=8
%mem=16000MB
#p B2PLYPD3/Def2QZVP 

acrolein

0 1
C  -5.003923  -1.393787   0.919564
O  -3.943504  -0.860451   0.636061
C  -5.187684  -2.831647   1.166217
C  -6.406332  -3.297174   1.383995
H  -4.283669  -3.473957   1.125444
H  -7.254311  -2.661511   1.348355
H  -6.576819  -4.360420   1.573314
H  -5.893132  -0.777834   0.998132

