%chk=/home/boittier/MDCM/nms_sampling/acrolein_geom.xyz.dir/acrolein_1272.chk
%nproc=8
%mem=16000MB
#p B2PLYPD3/Def2QZVP 

acrolein

0 1
C  -5.002500  -1.397616   0.920243
O  -3.944234  -0.856683   0.632851
C  -5.187422  -2.828446   1.193846
C  -6.403081  -3.294702   1.365763
H  -4.271140  -3.481420   1.039224
H  -7.232879  -2.676685   1.441828
H  -6.596765  -4.378903   1.555910
H  -5.956366  -0.822212   0.942917

