%chk=/home/boittier/MDCM/nms_sampling/acrolein_geom.xyz.dir/acrolein_2485.chk
%nproc=8
%mem=16000MB
#p B2PLYPD3/Def2QZVP 

acrolein

0 1
C  -4.963395  -1.421083   0.867801
O  -3.920907  -0.845445   0.709253
C  -5.206930  -2.845823   1.056108
C  -6.457644  -3.279122   1.439546
H  -4.331967  -3.525634   1.079336
H  -7.240459  -2.664268   1.429465
H  -6.587288  -4.273742   1.913333
H  -5.874305  -0.769501   0.740964

