%chk=/home/boittier/MDCM/nms_sampling/acrolein_geom.xyz.dir/acrolein_1338.chk
%nproc=8
%mem=16000MB
#p B2PLYPD3/Def2QZVP 

acrolein

0 1
C  -5.015357  -1.388218   0.872880
O  -3.940314  -0.876412   0.679929
C  -5.204134  -2.801013   1.107792
C  -6.383366  -3.313469   1.412596
H  -4.342815  -3.395993   1.167035
H  -7.163923  -2.674386   1.470271
H  -6.536884  -4.406352   1.704316
H  -5.941146  -0.768758   0.912277

