%chk=/home/boittier/MDCM/nms_sampling/acrolein_geom.xyz.dir/acrolein_1260.chk
%nproc=8
%mem=16000MB
#p B2PLYPD3/Def2QZVP 

acrolein

0 1
C  -5.022625  -1.375279   0.935639
O  -3.945983  -0.871906   0.620952
C  -5.186024  -2.808224   1.194136
C  -6.390094  -3.325246   1.381730
H  -4.274714  -3.450878   1.085072
H  -7.253051  -2.700853   1.355407
H  -6.508271  -4.310004   1.409090
H  -5.918831  -0.800395   0.942738
