%chk=/home/boittier/MDCM/nms_sampling/acrolein_geom.xyz.dir/acrolein_2010.chk
%nproc=8
%mem=16000MB
#p B2PLYPD3/Def2QZVP 

acrolein

0 1
C  -4.973860  -1.420914   0.808268
O  -3.929503  -0.837836   0.727615
C  -5.173491  -2.856981   1.060142
C  -6.450921  -3.266332   1.476611
H  -4.349855  -3.432086   1.133949
H  -7.352078  -2.695622   1.460991
H  -6.639633  -4.382582   1.632088
H  -5.903554  -0.874688   0.850169
