%chk=/home/boittier/MDCM/nms_sampling/acrolein_geom.xyz.dir/acrolein_1457.chk
%nproc=8
%mem=16000MB
#p B2PLYPD3/Def2QZVP 

acrolein

0 1
C  -4.999921  -1.419331   0.869891
O  -3.939376  -0.847877   0.687135
C  -5.193116  -2.828004   1.108608
C  -6.402942  -3.299755   1.416673
H  -4.299871  -3.429439   1.050805
H  -7.270937  -2.631256   1.405021
H  -6.570252  -4.338812   1.790579
H  -5.957625  -0.788734   0.886191
