%chk=/home/boittier/MDCM/nms_sampling/acrolein_geom.xyz.dir/acrolein_1538.chk
%nproc=8
%mem=16000MB
#p B2PLYPD3/Def2QZVP 

acrolein

0 1
C  -4.983711  -1.405668   0.871159
O  -3.930892  -0.855833   0.667332
C  -5.196636  -2.823736   1.140907
C  -6.429675  -3.300767   1.397806
H  -4.301818  -3.479264   1.148378
H  -7.352421  -2.682426   1.459363
H  -6.574014  -4.314857   1.633242
H  -5.859668  -0.796563   1.012119
