%chk=/home/boittier/MDCM/nms_sampling/acrolein_geom.xyz.dir/acrolein_531.chk
%nproc=8
%mem=16000MB
#p B2PLYPD3/Def2QZVP 

acrolein

0 1
C  -4.996228  -1.403940   0.917267
O  -3.945348  -0.857529   0.639055
C  -5.187862  -2.826043   1.154148
C  -6.410470  -3.301327   1.380988
H  -4.279021  -3.438841   1.196370
H  -7.290150  -2.655992   1.415865
H  -6.588266  -4.342468   1.592277
H  -5.865467  -0.791178   0.990417

