%chk=/home/boittier/MDCM/nms_sampling/acrolein_geom.xyz.dir/acrolein_205.chk
%nproc=8
%mem=16000MB
#p B2PLYPD3/Def2QZVP 

acrolein

0 1
C  -5.001266  -1.379989   0.880638
O  -3.929678  -0.877158   0.672702
C  -5.205533  -2.807112   1.119198
C  -6.403817  -3.313531   1.417147
H  -4.341941  -3.437498   1.134176
H  -7.195191  -2.654563   1.413418
H  -6.583773  -4.385754   1.634036
H  -5.949022  -0.782294   0.910446

