%chk=/home/boittier/MDCM/nms_sampling/acrolein_geom.xyz.dir/acrolein_0.chk
%nproc=8
%mem=16000MB
#p B2PLYPD3/Def2QZVP 

acrolein

0 1
C  -5.010229  -1.378850   0.882083
O  -3.943144  -0.864973   0.674871
C  -5.180010  -2.836294   1.117381
C  -6.402285  -3.305451   1.422552
H  -4.308234  -3.443032   1.095563
H  -7.283973  -2.664384   1.385344
H  -6.572306  -4.327099   1.642286
H  -5.906955  -0.789601   0.880951
