%chk=/home/boittier/MDCM/nms_sampling/acrolein_geom.xyz.dir/acrolein_1128.chk
%nproc=8
%mem=16000MB
#p B2PLYPD3/Def2QZVP 

acrolein

0 1
C  -5.009304  -1.385489   0.880968
O  -3.942149  -0.856781   0.678532
C  -5.174092  -2.840798   1.104561
C  -6.405943  -3.306392   1.432119
H  -4.315639  -3.471593   1.112545
H  -7.267868  -2.633249   1.348947
H  -6.556098  -4.302847   1.655900
H  -5.983990  -0.795065   0.881643
