%chk=/home/boittier/MDCM/nms_sampling/acrolein_geom.xyz.dir/acrolein_587.chk
%nproc=8
%mem=16000MB
#p B2PLYPD3/Def2QZVP 

acrolein

0 1
C  -5.007554  -1.392300   0.909088
O  -3.937982  -0.856611   0.639467
C  -5.186681  -2.832860   1.160103
C  -6.405070  -3.306011   1.389382
H  -4.268425  -3.475940   1.170125
H  -7.307879  -2.670482   1.345892
H  -6.550130  -4.321729   1.555759
H  -5.960093  -0.770746   1.046816

