%chk=/home/boittier/MDCM/nms_sampling/acrolein_geom.xyz.dir/acrolein_423.chk
%nproc=8
%mem=16000MB
#p B2PLYPD3/Def2QZVP 

acrolein

0 1
C  -5.009941  -1.375777   0.878150
O  -3.940867  -0.875908   0.667972
C  -5.193397  -2.813379   1.137892
C  -6.389987  -3.311709   1.400834
H  -4.356688  -3.436274   1.117905
H  -7.266524  -2.674729   1.454283
H  -6.557416  -4.378712   1.640856
H  -5.916961  -0.788009   0.952230

