%chk=/home/boittier/MDCM/nms_sampling/acrolein_geom.xyz.dir/acrolein_153.chk
%nproc=8
%mem=16000MB
#p B2PLYPD3/Def2QZVP 

acrolein

0 1
C  -4.994525  -1.391871   0.904321
O  -3.932353  -0.864409   0.643371
C  -5.203964  -2.819221   1.169197
C  -6.414485  -3.306719   1.379744
H  -4.279149  -3.454148   1.133627
H  -7.273280  -2.674853   1.459085
H  -6.566074  -4.339168   1.550773
H  -5.898432  -0.810646   0.975520
