%chk=/home/boittier/MDCM/nms_sampling/acrolein_geom.xyz.dir/acrolein_2403.chk
%nproc=8
%mem=16000MB
#p B2PLYPD3/Def2QZVP 

acrolein

0 1
C  -4.983162  -1.383128   0.932007
O  -3.919810  -0.866268   0.601951
C  -5.186706  -2.823382   1.235004
C  -6.452940  -3.301213   1.323877
H  -4.209902  -3.449712   1.196516
H  -7.362129  -2.706801   1.533217
H  -6.648374  -4.434817   1.447413
H  -5.894882  -0.794515   1.133059
