%chk=/home/boittier/MDCM/nms_sampling/acrolein_geom.xyz.dir/acrolein_584.chk
%nproc=8
%mem=16000MB
#p B2PLYPD3/Def2QZVP 

acrolein

0 1
C  -4.999703  -1.387884   0.895805
O  -3.934603  -0.861167   0.664204
C  -5.186573  -2.833156   1.127837
C  -6.412419  -3.306429   1.406792
H  -4.335046  -3.459413   1.113084
H  -7.323116  -2.631975   1.399472
H  -6.564024  -4.322436   1.659006
H  -5.919659  -0.786886   0.898623
