%chk=/home/boittier/MDCM/nms_sampling/acrolein_geom.xyz.dir/acrolein_956.chk
%nproc=8
%mem=16000MB
#p B2PLYPD3/Def2QZVP 

acrolein

0 1
C  -5.009999  -1.377384   0.872755
O  -3.941573  -0.875493   0.688762
C  -5.177881  -2.810475   1.115632
C  -6.403231  -3.308179   1.418905
H  -4.300468  -3.413974   1.020927
H  -7.200770  -2.669908   1.525762
H  -6.619489  -4.474573   1.680047
H  -5.984626  -0.784359   0.736627
