%chk=/home/boittier/MDCM/nms_sampling/acrolein_geom.xyz.dir/acrolein_1537.chk
%nproc=8
%mem=16000MB
#p B2PLYPD3/Def2QZVP 

acrolein

0 1
C  -5.002465  -1.383610   0.883170
O  -3.926867  -0.855996   0.674311
C  -5.184996  -2.840500   1.134785
C  -6.418930  -3.302493   1.409561
H  -4.280494  -3.498272   1.059413
H  -7.389067  -2.663819   1.545513
H  -6.565001  -4.335457   1.575648
H  -5.954142  -0.807082   0.764711

