%chk=/home/boittier/MDCM/nms_sampling/acrolein_geom.xyz.dir/acrolein_209.chk
%nproc=8
%mem=16000MB
#p B2PLYPD3/Def2QZVP 

acrolein

0 1
C  -5.011033  -1.362992   0.878031
O  -3.933043  -0.881255   0.672697
C  -5.194493  -2.811545   1.130761
C  -6.398045  -3.319191   1.410333
H  -4.314785  -3.451415   1.082853
H  -7.274928  -2.679818   1.423278
H  -6.576919  -4.379702   1.651752
H  -5.937478  -0.772403   0.912453
