%chk=/home/boittier/MDCM/nms_sampling/acrolein_geom.xyz.dir/acrolein_1913.chk
%nproc=8
%mem=16000MB
#p B2PLYPD3/Def2QZVP 

acrolein

0 1
C  -5.029160  -1.373297   0.929114
O  -3.942047  -0.889651   0.626296
C  -5.198698  -2.768680   1.172705
C  -6.375342  -3.352237   1.374100
H  -4.315549  -3.400968   1.103488
H  -7.212385  -2.732061   1.186192
H  -6.522515  -4.293799   1.697181
H  -5.907744  -0.730716   1.146428
