%chk=/home/boittier/MDCM/nms_sampling/acrolein_geom.xyz.dir/acrolein_912.chk
%nproc=8
%mem=16000MB
#p B2PLYPD3/Def2QZVP 

acrolein

0 1
C  -5.007952  -1.374915   0.869657
O  -3.933193  -0.866420   0.680702
C  -5.191081  -2.839966   1.128188
C  -6.407884  -3.306444   1.412836
H  -4.276817  -3.451647   1.099788
H  -7.342927  -2.648670   1.586618
H  -6.562579  -4.336294   1.563859
H  -5.886185  -0.761523   0.786931

