%chk=/home/boittier/MDCM/nms_sampling/acrolein_geom.xyz.dir/acrolein_175.chk
%nproc=8
%mem=16000MB
#p B2PLYPD3/Def2QZVP 

acrolein

0 1
C  -5.017461  -1.369629   0.908783
O  -3.940504  -0.875468   0.641469
C  -5.189227  -2.818827   1.155891
C  -6.390752  -3.314861   1.391771
H  -4.323025  -3.444956   1.173103
H  -7.218403  -2.675903   1.355301
H  -6.563848  -4.349230   1.556886
H  -5.943333  -0.785796   1.026958
