%chk=/home/boittier/MDCM/nms_sampling/acrolein_geom.xyz.dir/acrolein_1607.chk
%nproc=8
%mem=16000MB
#p B2PLYPD3/Def2QZVP 

acrolein

0 1
C  -4.995078  -1.379697   0.854217
O  -3.935802  -0.862758   0.693329
C  -5.190635  -2.846039   1.130967
C  -6.413134  -3.302467   1.417207
H  -4.352314  -3.446442   0.979616
H  -7.320250  -2.640740   1.560709
H  -6.563832  -4.272890   1.638827
H  -5.882734  -0.806179   0.769423
