%chk=/home/boittier/MDCM/nms_sampling/acrolein_geom.xyz.dir/acrolein_2236.chk
%nproc=8
%mem=16000MB
#p B2PLYPD3/Def2QZVP 

acrolein

0 1
C  -5.017733  -1.372004   0.844082
O  -3.947065  -0.890632   0.702773
C  -5.199129  -2.782003   1.072715
C  -6.373794  -3.335838   1.461963
H  -4.394718  -3.422466   1.188588
H  -7.102909  -2.673509   1.405611
H  -6.550531  -4.335526   1.597098
H  -5.961590  -0.729967   0.875928
