%chk=/home/boittier/MDCM/nms_sampling/acrolein_geom.xyz.dir/acrolein_463.chk
%nproc=8
%mem=16000MB
#p B2PLYPD3/Def2QZVP 

acrolein

0 1
C  -5.002110  -1.378145   0.887341
O  -3.928981  -0.878296   0.671421
C  -5.200025  -2.804122   1.118078
C  -6.401184  -3.311682   1.418465
H  -4.362665  -3.436087   1.109948
H  -7.246634  -2.672473   1.382731
H  -6.605139  -4.423115   1.652799
H  -5.956850  -0.791356   0.889825
