%chk=/home/boittier/MDCM/nms_sampling/acrolein_geom.xyz.dir/acrolein_836.chk
%nproc=8
%mem=16000MB
#p B2PLYPD3/Def2QZVP 

acrolein

0 1
C  -5.015255  -1.365346   0.889635
O  -3.932420  -0.880584   0.667593
C  -5.195627  -2.806683   1.132697
C  -6.395264  -3.322200   1.404455
H  -4.303777  -3.447934   1.092669
H  -7.267351  -2.685867   1.454337
H  -6.568843  -4.377824   1.643344
H  -5.943679  -0.779575   0.868934

