%chk=/home/boittier/MDCM/nms_sampling/acrolein_geom.xyz.dir/acrolein_2605.chk
%nproc=8
%mem=16000MB
#p B2PLYPD3/Def2QZVP 

acrolein

0 1
C  -5.012171  -1.378167   0.934915
O  -3.939542  -0.883550   0.617724
C  -5.203177  -2.799926   1.144627
C  -6.400307  -3.307928   1.390951
H  -4.254766  -3.400729   1.372804
H  -7.019673  -2.743119   1.215700
H  -6.596495  -4.445983   1.518420
H  -5.971706  -0.746950   1.198818

