%chk=/home/boittier/MDCM/nms_sampling/acrolein_geom.xyz.dir/acrolein_1316.chk
%nproc=8
%mem=16000MB
#p B2PLYPD3/Def2QZVP 

acrolein

0 1
C  -4.991638  -1.391620   0.917977
O  -3.928062  -0.854191   0.632883
C  -5.195452  -2.852011   1.196734
C  -6.415847  -3.302972   1.367491
H  -4.336038  -3.438677   1.031647
H  -7.360469  -2.620273   1.436825
H  -6.532285  -4.273687   1.535280
H  -5.972427  -0.750730   0.948167
