%chk=/home/boittier/MDCM/nms_sampling/acrolein_geom.xyz.dir/acrolein_1604.chk
%nproc=8
%mem=16000MB
#p B2PLYPD3/Def2QZVP 

acrolein

0 1
C  -5.005178  -1.369506   0.901604
O  -3.931188  -0.875076   0.639853
C  -5.192474  -2.815776   1.180037
C  -6.401006  -3.317700   1.367871
H  -4.293907  -3.419747   1.145916
H  -7.321764  -2.672460   1.492744
H  -6.597904  -4.395920   1.555461
H  -5.983542  -0.792940   1.020161
