%chk=/home/boittier/MDCM/nms_sampling/acrolein_geom.xyz.dir/acrolein_1150.chk
%nproc=8
%mem=16000MB
#p B2PLYPD3/Def2QZVP 

acrolein

0 1
C  -5.009109  -1.386921   0.937229
O  -3.947442  -0.876793   0.622341
C  -5.189085  -2.793691   1.172666
C  -6.391296  -3.320949   1.359352
H  -4.311193  -3.440953   1.180591
H  -7.223633  -2.676754   1.344703
H  -6.599850  -4.384783   1.663346
H  -5.903237  -0.764460   1.073501
