%chk=/home/boittier/MDCM/nms_sampling/acrolein_geom.xyz.dir/acrolein_1701.chk
%nproc=8
%mem=16000MB
#p B2PLYPD3/Def2QZVP 

acrolein

0 1
C  -4.990263  -1.395447   0.858639
O  -3.935235  -0.853405   0.683281
C  -5.185984  -2.841832   1.117075
C  -6.415010  -3.296090   1.427545
H  -4.327936  -3.443832   1.099149
H  -7.408854  -2.678669   1.367655
H  -6.569734  -4.329187   1.651134
H  -5.929011  -0.815696   0.972696

