%chk=/home/boittier/MDCM/nms_sampling/acrolein_geom.xyz.dir/acrolein_635.chk
%nproc=8
%mem=16000MB
#p B2PLYPD3/Def2QZVP 

acrolein

0 1
C  -4.999420  -1.387642   0.906632
O  -3.934637  -0.867717   0.644723
C  -5.193391  -2.815926   1.159999
C  -6.413593  -3.309956   1.392147
H  -4.317322  -3.446958   1.112067
H  -7.296379  -2.652924   1.348898
H  -6.561848  -4.360437   1.579080
H  -5.876242  -0.808493   0.999724
