%chk=/home/boittier/MDCM/nms_sampling/acrolein_geom.xyz.dir/acrolein_320.chk
%nproc=8
%mem=16000MB
#p B2PLYPD3/Def2QZVP 

acrolein

0 1
C  -5.004555  -1.390438   0.903380
O  -3.942131  -0.862537   0.653961
C  -5.187475  -2.832135   1.140359
C  -6.405860  -3.300665   1.395675
H  -4.298171  -3.466993   1.137138
H  -7.266190  -2.634643   1.393398
H  -6.584277  -4.352840   1.641102
H  -5.877887  -0.776181   0.950024

