%chk=/home/boittier/MDCM/nms_sampling/acrolein_geom.xyz.dir/acrolein_311.chk
%nproc=8
%mem=16000MB
#p B2PLYPD3/Def2QZVP 

acrolein

0 1
C  -4.995636  -1.395590   0.903901
O  -3.929525  -0.862974   0.641139
C  -5.201646  -2.819861   1.175115
C  -6.414686  -3.308473   1.376811
H  -4.293038  -3.431076   1.139071
H  -7.287950  -2.660651   1.477437
H  -6.558371  -4.352016   1.523479
H  -5.932348  -0.781422   0.981771
