%chk=/home/boittier/MDCM/nms_sampling/acrolein_geom.xyz.dir/acrolein_1099.chk
%nproc=8
%mem=16000MB
#p B2PLYPD3/Def2QZVP 

acrolein

0 1
C  -5.024436  -1.372261   0.917025
O  -3.945839  -0.884949   0.639049
C  -5.185794  -2.788798   1.158307
C  -6.379549  -3.332093   1.392086
H  -4.344948  -3.380554   1.102538
H  -7.257160  -2.678101   1.245962
H  -6.517714  -4.412406   1.633778
H  -5.931735  -0.755922   1.050086

