%chk=/home/boittier/MDCM/nms_sampling/acrolein_geom.xyz.dir/acrolein_2361.chk
%nproc=8
%mem=16000MB
#p B2PLYPD3/Def2QZVP 

acrolein

0 1
C  -5.019733  -1.385772   0.946074
O  -3.933320  -0.865812   0.609659
C  -5.189024  -2.816742   1.223987
C  -6.392529  -3.306813   1.352426
H  -4.285482  -3.472136   1.037145
H  -7.171554  -2.587996   1.429201
H  -6.637668  -4.449211   1.432968
H  -6.016724  -0.825505   0.941045
