%chk=/home/boittier/MDCM/nms_sampling/acrolein_geom.xyz.dir/acrolein_716.chk
%nproc=8
%mem=16000MB
#p B2PLYPD3/Def2QZVP 

acrolein

0 1
C  -5.003517  -1.395752   0.916713
O  -3.940835  -0.857711   0.637449
C  -5.188539  -2.835815   1.172042
C  -6.410353  -3.295707   1.375927
H  -4.284211  -3.446656   1.119248
H  -7.274346  -2.642098   1.427679
H  -6.564153  -4.363102   1.569037
H  -5.874082  -0.811972   0.964900

