%chk=/home/boittier/MDCM/nms_sampling/acrolein_geom.xyz.dir/acrolein_1265.chk
%nproc=8
%mem=16000MB
#p B2PLYPD3/Def2QZVP 

acrolein

0 1
C  -5.001418  -1.393992   0.840612
O  -3.936931  -0.860287   0.694901
C  -5.194403  -2.821770   1.118167
C  -6.412874  -3.317010   1.436251
H  -4.297313  -3.461501   1.082442
H  -7.324316  -2.653374   1.498656
H  -6.498727  -4.262662   1.547495
H  -5.873493  -0.785650   0.872497
