%chk=/home/boittier/MDCM/nms_sampling/acrolein_geom.xyz.dir/acrolein_428.chk
%nproc=8
%mem=16000MB
#p B2PLYPD3/Def2QZVP 

acrolein

0 1
C  -5.000541  -1.393361   0.875335
O  -3.933013  -0.857200   0.670114
C  -5.190568  -2.828800   1.144568
C  -6.412316  -3.307231   1.411607
H  -4.287905  -3.458947   1.064927
H  -7.343645  -2.652652   1.457571
H  -6.548489  -4.334370   1.551794
H  -5.940236  -0.806758   0.889146
