%chk=/home/boittier/MDCM/nms_sampling/acrolein_geom.xyz.dir/acrolein_1203.chk
%nproc=8
%mem=16000MB
#p B2PLYPD3/Def2QZVP 

acrolein

0 1
C  -4.990416  -1.385839   0.911556
O  -3.928656  -0.854494   0.635569
C  -5.189833  -2.844204   1.161016
C  -6.432138  -3.310696   1.369038
H  -4.244312  -3.476812   1.230469
H  -7.353812  -2.634969   1.407120
H  -6.544845  -4.259328   1.634923
H  -5.945251  -0.794632   1.099211
