%chk=/home/boittier/MDCM/nms_sampling/acrolein_geom.xyz.dir/acrolein_1581.chk
%nproc=8
%mem=16000MB
#p B2PLYPD3/Def2QZVP 

acrolein

0 1
C  -5.005971  -1.385023   0.899185
O  -3.940546  -0.859336   0.656983
C  -5.184777  -2.830705   1.147514
C  -6.404788  -3.310605   1.392618
H  -4.236713  -3.439922   1.132315
H  -7.337420  -2.652127   1.532128
H  -6.529224  -4.366563   1.557305
H  -5.987157  -0.797683   0.848742

