%chk=/home/boittier/MDCM/nms_sampling/acrolein_geom.xyz.dir/acrolein_2614.chk
%nproc=8
%mem=16000MB
#p B2PLYPD3/Def2QZVP 

acrolein

0 1
C  -5.018837  -1.338047   0.980407
O  -3.925661  -0.885075   0.589859
C  -5.191667  -2.837329   1.186703
C  -6.397994  -3.317297   1.368745
H  -4.351341  -3.492743   1.246177
H  -7.334760  -2.587247   1.174023
H  -6.584882  -4.352297   1.462914
H  -5.881948  -0.785844   1.103781

