%chk=/home/boittier/MDCM/nms_sampling/acrolein_geom.xyz.dir/acrolein_1888.chk
%nproc=8
%mem=16000MB
#p B2PLYPD3/Def2QZVP 

acrolein

0 1
C  -5.049609  -1.354584   0.779846
O  -3.939614  -0.893182   0.730138
C  -5.208971  -2.781866   1.119132
C  -6.358537  -3.341478   1.460630
H  -4.207497  -3.445572   0.965905
H  -7.139404  -2.753072   1.624985
H  -6.507461  -4.375582   1.466912
H  -5.975092  -0.717454   0.809740
