%chk=/home/boittier/MDCM/nms_sampling/acrolein_geom.xyz.dir/acrolein_371.chk
%nproc=8
%mem=16000MB
#p B2PLYPD3/Def2QZVP 

acrolein

0 1
C  -5.010778  -1.375440   0.908349
O  -3.937250  -0.875914   0.637794
C  -5.195326  -2.808938   1.177228
C  -6.389819  -3.316871   1.383347
H  -4.360833  -3.441698   1.122253
H  -7.234798  -2.663760   1.412358
H  -6.545213  -4.375833   1.495468
H  -5.981033  -0.786523   0.993577
