%chk=/home/boittier/MDCM/nms_sampling/acrolein_geom.xyz.dir/acrolein_930.chk
%nproc=8
%mem=16000MB
#p B2PLYPD3/Def2QZVP 

acrolein

0 1
C  -5.002528  -1.404098   0.938873
O  -3.947692  -0.853795   0.623267
C  -5.180794  -2.831636   1.174071
C  -6.404603  -3.307299   1.359826
H  -4.310401  -3.422291   1.145128
H  -7.337132  -2.652093   1.331914
H  -6.555051  -4.277378   1.680259
H  -5.859383  -0.796300   1.053067

