%chk=/home/boittier/MDCM/nms_sampling/acrolein_geom.xyz.dir/acrolein_1158.chk
%nproc=8
%mem=16000MB
#p B2PLYPD3/Def2QZVP 

acrolein

0 1
C  -5.011865  -1.388823   0.866796
O  -3.932008  -0.878140   0.678406
C  -5.194558  -2.788562   1.128080
C  -6.399721  -3.320572   1.426893
H  -4.337106  -3.399185   1.113483
H  -7.174793  -2.673047   1.502897
H  -6.580259  -4.447353   1.489113
H  -5.988524  -0.757679   0.837315
