%chk=/home/boittier/MDCM/nms_sampling/acrolein_geom.xyz.dir/acrolein_727.chk
%nproc=8
%mem=16000MB
#p B2PLYPD3/Def2QZVP 

acrolein

0 1
C  -4.999158  -1.386753   0.907577
O  -3.930664  -0.859686   0.639786
C  -5.186407  -2.839026   1.167490
C  -6.418856  -3.298191   1.383736
H  -4.326042  -3.464893   1.149642
H  -7.318342  -2.641575   1.394654
H  -6.566656  -4.357647   1.545904
H  -5.927725  -0.800046   1.020361

