%chk=/home/boittier/MDCM/nms_sampling/acrolein_geom.xyz.dir/acrolein_1666.chk
%nproc=8
%mem=16000MB
#p B2PLYPD3/Def2QZVP 

acrolein

0 1
C  -5.011128  -1.368446   0.870297
O  -3.926766  -0.884584   0.688560
C  -5.197364  -2.799944   1.103744
C  -6.402217  -3.330736   1.418972
H  -4.367024  -3.400754   1.092734
H  -7.314999  -2.665370   1.488569
H  -6.553176  -4.349913   1.727724
H  -5.882333  -0.751090   0.820428

