%chk=/home/boittier/MDCM/nms_sampling/acrolein_geom.xyz.dir/acrolein_190.chk
%nproc=8
%mem=16000MB
#p B2PLYPD3/Def2QZVP 

acrolein

0 1
C  -4.997436  -1.389132   0.867308
O  -3.932075  -0.866345   0.679528
C  -5.199250  -2.820974   1.137544
C  -6.414221  -3.315299   1.418954
H  -4.300570  -3.427568   1.019663
H  -7.288593  -2.647283   1.458527
H  -6.553849  -4.306645   1.583915
H  -5.895919  -0.771652   0.849483
