%chk=/home/boittier/MDCM/nms_sampling/acrolein_geom.xyz.dir/acrolein_576.chk
%nproc=8
%mem=16000MB
#p B2PLYPD3/Def2QZVP 

acrolein

0 1
C  -5.007613  -1.380951   0.917095
O  -3.939431  -0.872599   0.635616
C  -5.194339  -2.809741   1.169604
C  -6.401847  -3.318456   1.380970
H  -4.264172  -3.426573   1.163969
H  -7.223232  -2.676491   1.443206
H  -6.572335  -4.359982   1.502060
H  -5.939556  -0.784807   0.960109
