%chk=/home/boittier/MDCM/nms_sampling/acrolein_geom.xyz.dir/acrolein_600.chk
%nproc=8
%mem=16000MB
#p B2PLYPD3/Def2QZVP 

acrolein

0 1
C  -5.004156  -1.375687   0.869320
O  -3.929364  -0.875638   0.677546
C  -5.195937  -2.816385   1.131016
C  -6.403512  -3.313854   1.417541
H  -4.343482  -3.430083   1.058171
H  -7.262104  -2.647490   1.416809
H  -6.583988  -4.391524   1.627987
H  -5.969666  -0.751406   0.907748
