%chk=/home/boittier/MDCM/nms_sampling/acrolein_geom.xyz.dir/acrolein_2337.chk
%nproc=8
%mem=16000MB
#p B2PLYPD3/Def2QZVP 

acrolein

0 1
C  -5.014286  -1.334568   0.944290
O  -3.920357  -0.902833   0.597406
C  -5.180712  -2.786764   1.248248
C  -6.403295  -3.344303   1.361197
H  -4.373245  -3.431003   1.019891
H  -7.376523  -2.747399   1.302876
H  -6.600321  -4.424688   1.287068
H  -6.023777  -0.668240   1.055804

