%chk=/home/boittier/MDCM/nms_sampling/acrolein_geom.xyz.dir/acrolein_578.chk
%nproc=8
%mem=16000MB
#p B2PLYPD3/Def2QZVP 

acrolein

0 1
C  -5.011786  -1.380311   0.873450
O  -3.936351  -0.871318   0.673855
C  -5.193099  -2.818955   1.142685
C  -6.398654  -3.313471   1.405426
H  -4.336217  -3.431786   1.045201
H  -7.232744  -2.676432   1.484467
H  -6.538750  -4.336874   1.617884
H  -5.939425  -0.765006   0.876060

