%chk=/home/boittier/MDCM/nms_sampling/acrolein_geom.xyz.dir/acrolein_480.chk
%nproc=8
%mem=16000MB
#p B2PLYPD3/Def2QZVP 

acrolein

0 1
C  -5.004079  -1.394675   0.903614
O  -3.937520  -0.859836   0.646887
C  -5.189974  -2.826476   1.152777
C  -6.401363  -3.303380   1.383159
H  -4.337308  -3.460661   1.163195
H  -7.278427  -2.672668   1.402006
H  -6.555678  -4.338678   1.638840
H  -5.963123  -0.784210   1.022147
