%chk=/home/boittier/MDCM/nms_sampling/acrolein_geom.xyz.dir/acrolein_186.chk
%nproc=8
%mem=16000MB
#p B2PLYPD3/Def2QZVP 

acrolein

0 1
C  -4.993652  -1.404856   0.929084
O  -3.942551  -0.855301   0.634016
C  -5.185340  -2.823530   1.157936
C  -6.412435  -3.303460   1.378309
H  -4.286358  -3.433884   1.155371
H  -7.303577  -2.646775   1.356119
H  -6.591911  -4.357428   1.630618
H  -5.924041  -0.819007   0.986567

