%chk=/home/boittier/MDCM/nms_sampling/acrolein_geom.xyz.dir/acrolein_255.chk
%nproc=8
%mem=16000MB
#p B2PLYPD3/Def2QZVP 

acrolein

0 1
C  -5.004909  -1.390782   0.890488
O  -3.938597  -0.861614   0.659290
C  -5.192565  -2.829311   1.150181
C  -6.407419  -3.300537   1.394946
H  -4.275525  -3.449851   1.117037
H  -7.275942  -2.673643   1.498430
H  -6.572077  -4.352897   1.565224
H  -5.883076  -0.810336   0.898412

