%chk=/home/boittier/MDCM/nms_sampling/acrolein_geom.xyz.dir/acrolein_606.chk
%nproc=8
%mem=16000MB
#p B2PLYPD3/Def2QZVP 

acrolein

0 1
C  -5.014243  -1.368542   0.872049
O  -3.932456  -0.877998   0.675221
C  -5.187183  -2.807140   1.123440
C  -6.402624  -3.321230   1.413200
H  -4.303043  -3.445955   1.132629
H  -7.276382  -2.684306   1.444460
H  -6.581169  -4.387877   1.638493
H  -5.947456  -0.783094   0.932421

