%chk=/home/boittier/MDCM/nms_sampling/acrolein_geom.xyz.dir/acrolein_2031.chk
%nproc=8
%mem=16000MB
#p B2PLYPD3/Def2QZVP 

acrolein

0 1
C  -4.994219  -1.414682   0.845196
O  -3.962669  -0.834432   0.721495
C  -5.168028  -2.855858   1.060089
C  -6.392946  -3.301085   1.471717
H  -4.238959  -3.433688   0.995210
H  -7.525039  -2.647493   1.399670
H  -6.554223  -4.240542   1.741973
H  -5.914697  -0.817571   0.680942
