%chk=/home/boittier/MDCM/nms_sampling/acrolein_geom.xyz.dir/acrolein_1720.chk
%nproc=8
%mem=16000MB
#p B2PLYPD3/Def2QZVP 

acrolein

0 1
C  -4.999977  -1.409394   0.878751
O  -3.940048  -0.845378   0.683310
C  -5.186676  -2.842476   1.105381
C  -6.416955  -3.286521   1.413044
H  -4.250563  -3.501475   1.085357
H  -7.240689  -2.637581   1.428340
H  -6.565452  -4.364512   1.787979
H  -5.944486  -0.823180   0.864417

