%chk=/home/boittier/MDCM/nms_sampling/acrolein_geom.xyz.dir/acrolein_536.chk
%nproc=8
%mem=16000MB
#p B2PLYPD3/Def2QZVP 

acrolein

0 1
C  -5.011059  -1.368204   0.910868
O  -3.933767  -0.878957   0.643074
C  -5.196932  -2.815827   1.165366
C  -6.396960  -3.317578   1.395143
H  -4.319259  -3.420755   1.101331
H  -7.211341  -2.650942   1.399717
H  -6.573433  -4.375389   1.493576
H  -5.962013  -0.772702   0.921902

