%chk=/home/boittier/MDCM/nms_sampling/acrolein_geom.xyz.dir/acrolein_147.chk
%nproc=8
%mem=16000MB
#p B2PLYPD3/Def2QZVP 

acrolein

0 1
C  -5.002752  -1.386756   0.918690
O  -3.938531  -0.863210   0.638491
C  -5.187231  -2.834053   1.172598
C  -6.406755  -3.305412   1.379767
H  -4.336561  -3.440084   1.095602
H  -7.319241  -2.658267   1.439009
H  -6.566331  -4.306989   1.542005
H  -5.878857  -0.781761   0.915170

