%chk=/home/boittier/MDCM/nms_sampling/acrolein_geom.xyz.dir/acrolein_174.chk
%nproc=8
%mem=16000MB
#p B2PLYPD3/Def2QZVP 

acrolein

0 1
C  -5.012595  -1.376258   0.912978
O  -3.942792  -0.871984   0.639628
C  -5.189537  -2.815071   1.176573
C  -6.398105  -3.319909   1.380135
H  -4.277227  -3.429443   1.081647
H  -7.256301  -2.673819   1.426885
H  -6.524974  -4.340022   1.539886
H  -5.928944  -0.784700   0.942280
