%chk=/home/boittier/MDCM/nms_sampling/acrolein_geom.xyz.dir/acrolein_1840.chk
%nproc=8
%mem=16000MB
#p B2PLYPD3/Def2QZVP 

acrolein

0 1
C  -5.013785  -1.412612   0.988125
O  -3.947778  -0.828394   0.588869
C  -5.171760  -2.854842   1.212730
C  -6.397247  -3.305015   1.337686
H  -4.193423  -3.534100   1.168037
H  -7.373857  -2.628504   1.430319
H  -6.530104  -4.211487   1.456250
H  -6.037754  -0.837707   0.915012

