%chk=/home/boittier/MDCM/nms_sampling/acrolein_geom.xyz.dir/acrolein_2153.chk
%nproc=8
%mem=16000MB
#p B2PLYPD3/Def2QZVP 

acrolein

0 1
C  -5.012293  -1.398733   0.931173
O  -3.955007  -0.848399   0.613626
C  -5.196669  -2.852747   1.187385
C  -6.391946  -3.302448   1.368270
H  -4.148753  -3.447246   1.205533
H  -7.261977  -2.678230   1.245640
H  -6.515862  -4.216978   1.540089
H  -5.868764  -0.778308   1.197271
