%chk=/home/boittier/MDCM/nms_sampling/acrolein_geom.xyz.dir/acrolein_2235.chk
%nproc=8
%mem=16000MB
#p B2PLYPD3/Def2QZVP 

acrolein

0 1
C  -5.020642  -1.390672   0.861750
O  -3.959135  -0.858327   0.679151
C  -5.178732  -2.836204   1.117920
C  -6.369457  -3.293536   1.394388
H  -4.360131  -3.427389   1.210646
H  -7.328161  -2.705494   1.552490
H  -6.532954  -4.344577   1.731339
H  -5.877615  -0.854643   0.988317
