%chk=/home/boittier/MDCM/nms_sampling/acrolein_geom.xyz.dir/acrolein_74.chk
%nproc=8
%mem=16000MB
#p B2PLYPD3/Def2QZVP 

acrolein

0 1
C  -4.998349  -1.394247   0.882006
O  -3.929176  -0.857556   0.669806
C  -5.192531  -2.829150   1.118784
C  -6.419351  -3.303301   1.417286
H  -4.272486  -3.474758   1.165569
H  -7.315751  -2.666439   1.403614
H  -6.581118  -4.342530   1.615387
H  -5.933032  -0.797896   0.937048

