%chk=/home/boittier/MDCM/nms_sampling/acrolein_geom.xyz.dir/acrolein_292.chk
%nproc=8
%mem=16000MB
#p B2PLYPD3/Def2QZVP 

acrolein

0 1
C  -5.012128  -1.372521   0.872838
O  -3.936858  -0.876090   0.673611
C  -5.190722  -2.811041   1.143130
C  -6.392977  -3.316100   1.408679
H  -4.335985  -3.446203   1.044367
H  -7.231473  -2.662757   1.472522
H  -6.562358  -4.397801   1.596464
H  -5.998978  -0.778223   0.877945
