%chk=/home/boittier/MDCM/nms_sampling/acrolein_geom.xyz.dir/acrolein_1740.chk
%nproc=8
%mem=16000MB
#p B2PLYPD3/Def2QZVP 

acrolein

0 1
C  -4.998137  -1.376506   0.950235
O  -3.924246  -0.886537   0.621491
C  -5.208302  -2.786302   1.165808
C  -6.405233  -3.319062   1.367756
H  -4.344006  -3.383579   1.169914
H  -7.257290  -2.679347   1.359276
H  -6.606133  -4.485397   1.616611
H  -5.943092  -0.795844   0.961406

