%chk=/home/boittier/MDCM/nms_sampling/acrolein_geom.xyz.dir/acrolein_478.chk
%nproc=8
%mem=16000MB
#p B2PLYPD3/Def2QZVP 

acrolein

0 1
C  -5.006980  -1.376728   0.912107
O  -3.928123  -0.880440   0.639271
C  -5.198898  -2.805278   1.174135
C  -6.403160  -3.315756   1.388186
H  -4.366145  -3.423465   1.086863
H  -7.222948  -2.651695   1.380430
H  -6.599188  -4.400651   1.512238
H  -5.921248  -0.764270   0.961742

