%chk=/home/boittier/MDCM/nms_sampling/acrolein_geom.xyz.dir/acrolein_2585.chk
%nproc=8
%mem=16000MB
#p B2PLYPD3/Def2QZVP 

acrolein

0 1
C  -5.004437  -1.394978   0.882434
O  -3.953631  -0.878097   0.682442
C  -5.191880  -2.796800   1.122804
C  -6.385237  -3.302230   1.407213
H  -4.401033  -3.437878   1.028430
H  -7.206762  -2.632763   1.561536
H  -6.561433  -4.483715   1.687758
H  -5.855798  -0.753755   0.722344
