%chk=/home/boittier/MDCM/nms_sampling/acrolein_geom.xyz.dir/acrolein_1191.chk
%nproc=8
%mem=16000MB
#p B2PLYPD3/Def2QZVP 

acrolein

0 1
C  -4.997092  -1.413671   0.913456
O  -3.946495  -0.852387   0.628267
C  -5.178697  -2.821356   1.197198
C  -6.410743  -3.306561   1.365449
H  -4.290853  -3.414217   1.127999
H  -7.325163  -2.641405   1.462192
H  -6.579810  -4.346456   1.472863
H  -5.903770  -0.787270   1.021197

