%chk=/home/boittier/MDCM/nms_sampling/acrolein_geom.xyz.dir/acrolein_1249.chk
%nproc=8
%mem=16000MB
#p B2PLYPD3/Def2QZVP 

acrolein

0 1
C  -5.018228  -1.366716   0.847905
O  -3.936753  -0.883091   0.691584
C  -5.188254  -2.795659   1.136048
C  -6.389848  -3.328140   1.429299
H  -4.284055  -3.442740   0.977860
H  -7.275836  -2.671446   1.488588
H  -6.563687  -4.446783   1.557758
H  -6.005966  -0.730829   0.824230
