%chk=/home/boittier/MDCM/nms_sampling/acrolein_geom.xyz.dir/acrolein_1733.chk
%nproc=8
%mem=16000MB
#p B2PLYPD3/Def2QZVP 

acrolein

0 1
C  -4.997465  -1.396416   0.849133
O  -3.944331  -0.860117   0.692038
C  -5.179084  -2.830190   1.100750
C  -6.414503  -3.293287   1.437759
H  -4.306806  -3.467673   1.140624
H  -7.265515  -2.640696   1.401805
H  -6.595565  -4.413621   1.641538
H  -5.906920  -0.782951   0.949039
