%chk=/home/boittier/MDCM/nms_sampling/acrolein_geom.xyz.dir/acrolein_1167.chk
%nproc=8
%mem=16000MB
#p B2PLYPD3/Def2QZVP 

acrolein

0 1
C  -5.020597  -1.379039   0.926564
O  -3.947544  -0.876047   0.621282
C  -5.193065  -2.803102   1.193284
C  -6.376847  -3.322124   1.359141
H  -4.332479  -3.410354   1.192957
H  -7.288816  -2.664571   1.498050
H  -6.503283  -4.375472   1.460263
H  -5.898499  -0.790022   1.002560

