%chk=/home/boittier/MDCM/nms_sampling/acrolein_geom.xyz.dir/acrolein_1634.chk
%nproc=8
%mem=16000MB
#p B2PLYPD3/Def2QZVP 

acrolein

0 1
C  -5.006398  -1.382617   0.921554
O  -3.923057  -0.874313   0.631522
C  -5.212456  -2.803216   1.170206
C  -6.404330  -3.324445   1.387257
H  -4.321559  -3.447367   1.124992
H  -7.293658  -2.658126   1.278132
H  -6.507822  -4.333988   1.554895
H  -5.916988  -0.761271   1.051104

