%chk=/home/boittier/MDCM/nms_sampling/acrolein_geom.xyz.dir/acrolein_1689.chk
%nproc=8
%mem=16000MB
#p B2PLYPD3/Def2QZVP 

acrolein

0 1
C  -5.029287  -1.361577   0.854995
O  -3.941340  -0.885612   0.689044
C  -5.192697  -2.797441   1.115884
C  -6.380483  -3.327842   1.438983
H  -4.274902  -3.439194   1.104904
H  -7.196546  -2.641049   1.509358
H  -6.572259  -4.419793   1.492811
H  -5.925496  -0.793862   0.810283

