%chk=/home/boittier/MDCM/nms_sampling/acrolein_geom.xyz.dir/acrolein_1584.chk
%nproc=8
%mem=16000MB
#p B2PLYPD3/Def2QZVP 

acrolein

0 1
C  -5.019305  -1.369424   0.947941
O  -3.939524  -0.879603   0.619486
C  -5.188434  -2.803136   1.168929
C  -6.387049  -3.323430   1.381299
H  -4.294539  -3.440727   1.153240
H  -7.198990  -2.669944   1.266203
H  -6.559185  -4.421160   1.551373
H  -6.042626  -0.742496   1.001959

