%chk=/home/boittier/MDCM/nms_sampling/acrolein_geom.xyz.dir/acrolein_249.chk
%nproc=8
%mem=16000MB
#p B2PLYPD3/Def2QZVP 

acrolein

0 1
C  -5.012578  -1.379310   0.888317
O  -3.934945  -0.870019   0.670199
C  -5.196844  -2.822835   1.122872
C  -6.395880  -3.312752   1.409515
H  -4.310852  -3.441060   1.112602
H  -7.249921  -2.671014   1.430594
H  -6.547867  -4.334065   1.665855
H  -5.943090  -0.763690   0.880782
