%chk=/home/boittier/MDCM/nms_sampling/acrolein_geom.xyz.dir/acrolein_1082.chk
%nproc=8
%mem=16000MB
#p B2PLYPD3/Def2QZVP 

acrolein

0 1
C  -4.997999  -1.385086   0.948862
O  -3.929245  -0.875541   0.616860
C  -5.195660  -2.796835   1.183373
C  -6.404856  -3.319683   1.359233
H  -4.317912  -3.443927   1.159953
H  -7.307745  -2.673155   1.416164
H  -6.648508  -4.411003   1.552172
H  -5.959620  -0.765065   0.957938
