%chk=/home/boittier/MDCM/nms_sampling/acrolein_geom.xyz.dir/acrolein_969.chk
%nproc=8
%mem=16000MB
#p B2PLYPD3/Def2QZVP 

acrolein

0 1
C  -5.000152  -1.385315   0.912455
O  -3.925507  -0.855623   0.628067
C  -5.185330  -2.839667   1.197761
C  -6.426839  -3.316732   1.373858
H  -4.256726  -3.485524   1.121583
H  -7.358508  -2.618275   1.434546
H  -6.548573  -4.267472   1.421699
H  -5.970566  -0.759616   1.016759

