%chk=/home/boittier/MDCM/nms_sampling/acrolein_geom.xyz.dir/acrolein_1800.chk
%nproc=8
%mem=16000MB
#p B2PLYPD3/Def2QZVP 

acrolein

0 1
C  -4.973482  -1.439028   0.962877
O  -3.918045  -0.835543   0.622162
C  -5.216315  -2.824636   1.144435
C  -6.440084  -3.291521   1.366982
H  -4.226908  -3.417685   1.194793
H  -7.366250  -2.695746   1.297284
H  -6.561252  -4.327303   1.753620
H  -5.920354  -0.885198   0.966769
