%chk=/home/boittier/MDCM/nms_sampling/acrolein_geom.xyz.dir/acrolein_188.chk
%nproc=8
%mem=16000MB
#p B2PLYPD3/Def2QZVP 

acrolein

0 1
C  -5.003772  -1.396370   0.902701
O  -3.937785  -0.857493   0.645799
C  -5.193362  -2.836707   1.153774
C  -6.406461  -3.301934   1.394141
H  -4.300030  -3.445794   1.153524
H  -7.276261  -2.633363   1.343949
H  -6.554099  -4.314979   1.582184
H  -5.900011  -0.779244   1.035441
