%chk=/home/boittier/MDCM/nms_sampling/acrolein_geom.xyz.dir/acrolein_1160.chk
%nproc=8
%mem=16000MB
#p B2PLYPD3/Def2QZVP 

acrolein

0 1
C  -5.017305  -1.377983   0.865324
O  -3.944244  -0.877322   0.684076
C  -5.198341  -2.798482   1.133503
C  -6.378500  -3.328780   1.426311
H  -4.297800  -3.442317   0.991130
H  -7.230118  -2.647788   1.457816
H  -6.539764  -4.358031   1.574770
H  -5.963603  -0.761090   0.804291
