%chk=/home/boittier/MDCM/nms_sampling/acrolein_geom.xyz.dir/acrolein_1224.chk
%nproc=8
%mem=16000MB
#p B2PLYPD3/Def2QZVP 

acrolein

0 1
C  -4.999568  -1.383934   0.860008
O  -3.930646  -0.862212   0.688586
C  -5.189795  -2.831562   1.138762
C  -6.419741  -3.313259   1.411059
H  -4.321391  -3.442394   0.959036
H  -7.379663  -2.645403   1.540014
H  -6.523474  -4.283557   1.654479
H  -5.864432  -0.807685   0.784227

