%chk=/home/boittier/MDCM/nms_sampling/acrolein_geom.xyz.dir/acrolein_2003.chk
%nproc=8
%mem=16000MB
#p B2PLYPD3/Def2QZVP 

acrolein

0 1
C  -4.984810  -1.404273   0.863963
O  -3.912731  -0.854903   0.685929
C  -5.227201  -2.837476   1.112074
C  -6.433291  -3.291619   1.424315
H  -4.309289  -3.444360   1.068594
H  -7.240718  -2.622247   1.380032
H  -6.529896  -4.315627   1.716359
H  -5.867254  -0.854160   0.922843

