%chk=/home/boittier/MDCM/nms_sampling/acrolein_geom.xyz.dir/acrolein_228.chk
%nproc=8
%mem=16000MB
#p B2PLYPD3/Def2QZVP 

acrolein

0 1
C  -5.011866  -1.383006   0.873531
O  -3.937621  -0.874547   0.671262
C  -5.192276  -2.806197   1.140196
C  -6.398593  -3.314460   1.413572
H  -4.332230  -3.436441   1.076798
H  -7.199646  -2.665006   1.438076
H  -6.564767  -4.389979   1.568791
H  -5.936702  -0.774005   0.911068
