%chk=/home/boittier/MDCM/nms_sampling/acrolein_geom.xyz.dir/acrolein_2349.chk
%nproc=8
%mem=16000MB
#p B2PLYPD3/Def2QZVP 

acrolein

0 1
C  -5.003328  -1.393671   0.792981
O  -3.934612  -0.887453   0.728080
C  -5.208710  -2.756832   1.089860
C  -6.382466  -3.325453   1.445247
H  -4.307031  -3.335272   1.075940
H  -7.215916  -2.739860   1.570063
H  -6.666845  -4.546322   1.707186
H  -5.999866  -0.798161   0.913768
