%chk=/home/boittier/MDCM/nms_sampling/acrolein_geom.xyz.dir/acrolein_1255.chk
%nproc=8
%mem=16000MB
#p B2PLYPD3/Def2QZVP 

acrolein

0 1
C  -4.997091  -1.376454   0.851429
O  -3.925638  -0.873660   0.694540
C  -5.204496  -2.811659   1.133405
C  -6.422338  -3.314908   1.416812
H  -4.263601  -3.462330   0.958513
H  -7.220242  -2.691030   1.549634
H  -6.577457  -4.346924   1.652453
H  -5.929027  -0.804900   0.779722
