%chk=/home/boittier/MDCM/nms_sampling/acrolein_geom.xyz.dir/acrolein_2416.chk
%nproc=8
%mem=16000MB
#p B2PLYPD3/Def2QZVP 

acrolein

0 1
C  -5.017325  -1.380779   0.914082
O  -3.940171  -0.870739   0.627045
C  -5.184884  -2.817781   1.202993
C  -6.381930  -3.310976   1.386041
H  -4.390087  -3.425376   1.032887
H  -7.237539  -2.589398   1.282480
H  -6.592599  -4.412582   1.430974
H  -5.980539  -0.815475   1.053132

