%chk=/home/boittier/MDCM/nms_sampling/acrolein_geom.xyz.dir/acrolein_2291.chk
%nproc=8
%mem=16000MB
#p B2PLYPD3/Def2QZVP 

acrolein

0 1
C  -5.020627  -1.313315   0.812400
O  -3.921243  -0.906330   0.708040
C  -5.201762  -2.827486   1.118209
C  -6.386803  -3.312108   1.440325
H  -4.414921  -3.420054   1.063138
H  -7.250385  -2.717421   1.527846
H  -6.588202  -4.441160   1.561872
H  -5.955189  -0.762744   0.924051

