%chk=/home/boittier/MDCM/nms_sampling/acrolein_geom.xyz.dir/acrolein_718.chk
%nproc=8
%mem=16000MB
#p B2PLYPD3/Def2QZVP 

acrolein

0 1
C  -5.003752  -1.390686   0.903970
O  -3.941228  -0.864884   0.648225
C  -5.190649  -2.822800   1.161497
C  -6.408045  -3.307189   1.394561
H  -4.264316  -3.433695   1.091142
H  -7.240143  -2.666361   1.402867
H  -6.592442  -4.347525   1.541157
H  -5.891596  -0.787966   0.935169

