%chk=/home/boittier/MDCM/nms_sampling/acrolein_geom.xyz.dir/acrolein_1987.chk
%nproc=8
%mem=16000MB
#p B2PLYPD3/Def2QZVP 

acrolein

0 1
C  -5.027760  -1.360576   0.853426
O  -3.948290  -0.879005   0.682134
C  -5.178127  -2.793029   1.144242
C  -6.386618  -3.343094   1.393768
H  -4.201696  -3.450501   1.076313
H  -7.205837  -2.670075   1.601050
H  -6.489050  -4.386934   1.653404
H  -6.089340  -0.779469   0.908907

