%chk=/home/boittier/MDCM/nms_sampling/acrolein_geom.xyz.dir/acrolein_2660.chk
%nproc=8
%mem=16000MB
#p B2PLYPD3/Def2QZVP 

acrolein

0 1
C  -5.025261  -1.344534   0.967314
O  -3.914265  -0.882976   0.610284
C  -5.202577  -2.823791   1.158590
C  -6.393746  -3.322469   1.349801
H  -4.334865  -3.415684   1.252237
H  -7.255366  -2.737413   1.300119
H  -6.521096  -4.347229   1.750929
H  -6.075882  -0.783635   1.071059
