%chk=/home/boittier/MDCM/nms_sampling/acrolein_geom.xyz.dir/acrolein_43.chk
%nproc=8
%mem=16000MB
#p B2PLYPD3/Def2QZVP 

acrolein

0 1
C  -5.015694  -1.380754   0.903434
O  -3.935974  -0.875868   0.643100
C  -5.199089  -2.806120   1.171668
C  -6.392910  -3.318605   1.382666
H  -4.271467  -3.419820   1.126855
H  -7.200535  -2.669446   1.457616
H  -6.590380  -4.387233   1.518248
H  -5.940070  -0.759665   0.967684

