%chk=/home/boittier/MDCM/nms_sampling/acrolein_geom.xyz.dir/acrolein_23.chk
%nproc=8
%mem=16000MB
#p B2PLYPD3/Def2QZVP 

acrolein

0 1
C  -5.003434  -1.379785   0.878566
O  -3.931673  -0.866358   0.669909
C  -5.184467  -2.829732   1.141652
C  -6.413094  -3.306314   1.413032
H  -4.341808  -3.446744   1.064085
H  -7.303448  -2.647503   1.448338
H  -6.567941  -4.366257   1.558886
H  -5.944484  -0.791557   0.875995

