%chk=/home/boittier/MDCM/nms_sampling/acrolein_geom.xyz.dir/acrolein_947.chk
%nproc=8
%mem=16000MB
#p B2PLYPD3/Def2QZVP 

acrolein

0 1
C  -5.003905  -1.386344   0.946064
O  -3.941299  -0.864862   0.616867
C  -5.196448  -2.825636   1.169377
C  -6.410172  -3.307613   1.361024
H  -4.225518  -3.478382   1.251334
H  -7.247148  -2.640278   1.398124
H  -6.542492  -4.349973   1.575559
H  -5.881296  -0.776644   1.030105

