%chk=/home/boittier/MDCM/nms_sampling/acrolein_geom.xyz.dir/acrolein_2494.chk
%nproc=8
%mem=16000MB
#p B2PLYPD3/Def2QZVP 

acrolein

0 1
C  -5.014672  -1.394710   0.826937
O  -3.948113  -0.858263   0.721683
C  -5.188648  -2.826272   1.038195
C  -6.399734  -3.319362   1.470225
H  -4.186043  -3.473390   1.236737
H  -7.259417  -2.680510   1.435221
H  -6.562960  -4.227347   1.731888
H  -5.869350  -0.742266   0.875298
