%chk=/home/boittier/MDCM/nms_sampling/acrolein_geom.xyz.dir/acrolein_1599.chk
%nproc=8
%mem=16000MB
#p B2PLYPD3/Def2QZVP 

acrolein

0 1
C  -5.024501  -1.361669   0.862563
O  -3.944922  -0.888050   0.687717
C  -5.183902  -2.797669   1.099582
C  -6.384143  -3.328860   1.434711
H  -4.298165  -3.410023   1.127520
H  -7.238130  -2.687209   1.382697
H  -6.579860  -4.408952   1.670236
H  -5.917163  -0.735935   0.915517

