%chk=/home/boittier/MDCM/nms_sampling/acrolein_geom.xyz.dir/acrolein_136.chk
%nproc=8
%mem=16000MB
#p B2PLYPD3/Def2QZVP 

acrolein

0 1
C  -5.007995  -1.374926   0.911521
O  -3.925771  -0.877402   0.645139
C  -5.195577  -2.810946   1.152270
C  -6.409033  -3.314404   1.385171
H  -4.320382  -3.427595   1.137171
H  -7.219126  -2.682658   1.375678
H  -6.591926  -4.403716   1.644890
H  -5.978380  -0.749431   0.989530
