%chk=/home/boittier/MDCM/nms_sampling/acrolein_geom.xyz.dir/acrolein_805.chk
%nproc=8
%mem=16000MB
#p B2PLYPD3/Def2QZVP 

acrolein

0 1
C  -4.997157  -1.386964   0.865750
O  -3.933535  -0.863925   0.679961
C  -5.191741  -2.831375   1.120349
C  -6.407187  -3.302725   1.421478
H  -4.356279  -3.446701   1.113143
H  -7.333745  -2.665889   1.429737
H  -6.568475  -4.344338   1.623992
H  -5.934760  -0.775935   0.922061
