%chk=/home/boittier/MDCM/nms_sampling/acrolein_geom.xyz.dir/acrolein_629.chk
%nproc=8
%mem=16000MB
#p B2PLYPD3/Def2QZVP 

acrolein

0 1
C  -5.007535  -1.376777   0.917228
O  -3.929506  -0.874968   0.639687
C  -5.195806  -2.813574   1.166864
C  -6.409613  -3.311525   1.390658
H  -4.304127  -3.429097   1.105874
H  -7.210327  -2.685837   1.401374
H  -6.591124  -4.386949   1.505180
H  -5.941241  -0.786373   0.917505

