%chk=/home/boittier/MDCM/nms_sampling/acrolein_geom.xyz.dir/acrolein_1233.chk
%nproc=8
%mem=16000MB
#p B2PLYPD3/Def2QZVP 

acrolein

0 1
C  -4.985171  -1.401139   0.922160
O  -3.930801  -0.858414   0.624143
C  -5.199501  -2.837583   1.204358
C  -6.426567  -3.292423   1.363790
H  -4.319244  -3.435547   1.083504
H  -7.332229  -2.650744   1.432922
H  -6.570961  -4.349362   1.472973
H  -5.841526  -0.773803   0.997813
