%chk=/home/boittier/MDCM/nms_sampling/acrolein_geom.xyz.dir/acrolein_2232.chk
%nproc=8
%mem=16000MB
#p B2PLYPD3/Def2QZVP 

acrolein

0 1
C  -4.987009  -1.387205   0.823845
O  -3.931099  -0.849007   0.718835
C  -5.195352  -2.869850   1.048995
C  -6.430180  -3.277740   1.471888
H  -4.302338  -3.549655   1.209707
H  -7.433082  -2.641646   1.390245
H  -6.537144  -4.285548   1.697450
H  -5.785108  -0.837310   0.918192
