%chk=/home/boittier/MDCM/nms_sampling/acrolein_geom.xyz.dir/acrolein_1563.chk
%nproc=8
%mem=16000MB
#p B2PLYPD3/Def2QZVP 

acrolein

0 1
C  -5.020287  -1.377799   0.922944
O  -3.946274  -0.880356   0.626136
C  -5.186162  -2.790323   1.184681
C  -6.384745  -3.328862   1.367844
H  -4.315895  -3.390656   1.152732
H  -7.262975  -2.696690   1.392464
H  -6.569964  -4.377997   1.536470
H  -5.884938  -0.805551   1.045714
