%chk=/home/boittier/MDCM/nms_sampling/acrolein_geom.xyz.dir/acrolein_1858.chk
%nproc=8
%mem=16000MB
#p B2PLYPD3/Def2QZVP 

acrolein

0 1
C  -5.001830  -1.397052   0.874405
O  -3.961146  -0.840873   0.688688
C  -5.147590  -2.871986   1.111623
C  -6.411409  -3.283821   1.412549
H  -4.282766  -3.462406   1.040342
H  -7.328732  -2.657411   1.534073
H  -6.601407  -4.296618   1.736315
H  -5.950541  -0.809465   0.755031

