%chk=/home/boittier/MDCM/nms_sampling/acrolein_geom.xyz.dir/acrolein_2654.chk
%nproc=8
%mem=16000MB
#p B2PLYPD3/Def2QZVP 

acrolein

0 1
C  -4.992329  -1.374828   0.827149
O  -3.930348  -0.846187   0.714332
C  -5.168857  -2.878914   1.094831
C  -6.439418  -3.293576   1.456515
H  -4.299731  -3.468860   1.086151
H  -7.387000  -2.660809   1.646651
H  -6.488214  -4.252820   1.475667
H  -6.022452  -0.816975   0.679816
