%chk=/home/boittier/MDCM/nms_sampling/acrolein_geom.xyz.dir/acrolein_2345.chk
%nproc=8
%mem=16000MB
#p B2PLYPD3/Def2QZVP 

acrolein

0 1
C  -5.031895  -1.374920   0.916341
O  -3.937993  -0.889285   0.633401
C  -5.212120  -2.785442   1.160036
C  -6.356023  -3.322190   1.364253
H  -4.409635  -3.366457   1.215549
H  -7.085839  -2.742796   1.346766
H  -6.529808  -4.407767   1.714759
H  -6.017831  -0.752649   1.144354
