%chk=/home/boittier/MDCM/nms_sampling/acrolein_geom.xyz.dir/acrolein_2650.chk
%nproc=8
%mem=16000MB
#p B2PLYPD3/Def2QZVP 

acrolein

0 1
C  -5.006960  -1.367230   0.820600
O  -3.936124  -0.858647   0.694041
C  -5.169999  -2.871569   1.150603
C  -6.425073  -3.296772   1.426768
H  -4.345735  -3.537180   1.038192
H  -7.381757  -2.623742   1.572672
H  -6.551385  -4.212674   1.443268
H  -5.797867  -0.761868   0.921401
