%chk=/home/boittier/MDCM/nms_sampling/acrolein_geom.xyz.dir/acrolein_745.chk
%nproc=8
%mem=16000MB
#p B2PLYPD3/Def2QZVP 

acrolein

0 1
C  -5.001597  -1.393822   0.870679
O  -3.939762  -0.859439   0.678782
C  -5.189455  -2.827147   1.123129
C  -6.410231  -3.306765   1.421431
H  -4.243607  -3.458667   1.065059
H  -7.284785  -2.638292   1.378444
H  -6.576172  -4.356582   1.660122
H  -5.927239  -0.784655   0.920415

