%chk=/home/boittier/MDCM/nms_sampling/acrolein_geom.xyz.dir/acrolein_1345.chk
%nproc=8
%mem=16000MB
#p B2PLYPD3/Def2QZVP 

acrolein

0 1
C  -4.990743  -1.391588   0.877559
O  -3.930310  -0.858867   0.671621
C  -5.198246  -2.840918   1.135169
C  -6.416765  -3.303969   1.415175
H  -4.361629  -3.444569   1.059474
H  -7.316966  -2.682516   1.388020
H  -6.524624  -4.244773   1.620329
H  -5.930611  -0.759506   0.918693

