%chk=/home/boittier/MDCM/nms_sampling/acrolein_geom.xyz.dir/acrolein_1005.chk
%nproc=8
%mem=16000MB
#p B2PLYPD3/Def2QZVP 

acrolein

0 1
C  -5.003044  -1.373452   0.867298
O  -3.933943  -0.865710   0.680755
C  -5.184452  -2.831206   1.107666
C  -6.406607  -3.312500   1.427736
H  -4.284587  -3.481849   1.173085
H  -7.367047  -2.662629   1.437259
H  -6.601366  -4.331990   1.604408
H  -5.961220  -0.786674   0.914390

