%chk=/home/boittier/MDCM/nms_sampling/acrolein_geom.xyz.dir/acrolein_263.chk
%nproc=8
%mem=16000MB
#p B2PLYPD3/Def2QZVP 

acrolein

0 1
C  -5.008741  -1.365615   0.904768
O  -3.929910  -0.881120   0.639972
C  -5.191637  -2.806465   1.173678
C  -6.404476  -3.324709   1.387539
H  -4.321819  -3.412289   1.138432
H  -7.291328  -2.675541   1.426446
H  -6.560493  -4.391181   1.471183
H  -5.965067  -0.771048   0.985932

