%chk=/home/boittier/MDCM/nms_sampling/acrolein_geom.xyz.dir/acrolein_2027.chk
%nproc=8
%mem=16000MB
#p B2PLYPD3/Def2QZVP 

acrolein

0 1
C  -5.028735  -1.379213   0.851743
O  -3.939075  -0.879607   0.689872
C  -5.180888  -2.804590   1.132936
C  -6.385534  -3.293972   1.423921
H  -4.308588  -3.446722   1.064755
H  -7.116653  -2.723014   1.645415
H  -6.674251  -4.567476   1.468557
H  -5.990905  -0.749704   0.738364

