%chk=/home/boittier/MDCM/nms_sampling/acrolein_geom.xyz.dir/acrolein_1557.chk
%nproc=8
%mem=16000MB
#p B2PLYPD3/Def2QZVP 

acrolein

0 1
C  -5.006814  -1.380639   0.859391
O  -3.935974  -0.876759   0.687502
C  -5.205165  -2.814454   1.133207
C  -6.398364  -3.311123   1.427933
H  -4.296299  -3.423562   0.974143
H  -7.164967  -2.653548   1.450625
H  -6.587802  -4.379359   1.590032
H  -5.918920  -0.747324   0.815169

