%chk=/home/boittier/MDCM/nms_sampling/acrolein_geom.xyz.dir/acrolein_902.chk
%nproc=8
%mem=16000MB
#p B2PLYPD3/Def2QZVP 

acrolein

0 1
C  -4.993570  -1.397489   0.873025
O  -3.937499  -0.853597   0.678502
C  -5.184346  -2.841456   1.105049
C  -6.409039  -3.299952   1.429950
H  -4.358612  -3.436375   1.167583
H  -7.382681  -2.645043   1.384730
H  -6.584761  -4.297917   1.625076
H  -5.914366  -0.813812   0.927473

