%chk=/home/boittier/MDCM/nms_sampling/acrolein_geom.xyz.dir/acrolein_768.chk
%nproc=8
%mem=16000MB
#p B2PLYPD3/Def2QZVP 

acrolein

0 1
C  -5.011153  -1.376290   0.916499
O  -3.931521  -0.875465   0.639196
C  -5.195564  -2.813683   1.153472
C  -6.402658  -3.315329   1.384007
H  -4.320071  -3.439214   1.196478
H  -7.207628  -2.652723   1.400943
H  -6.582007  -4.371960   1.581162
H  -5.942105  -0.768970   0.995923
