%chk=/home/boittier/MDCM/nms_sampling/acrolein_geom.xyz.dir/acrolein_1808.chk
%nproc=8
%mem=16000MB
#p B2PLYPD3/Def2QZVP 

acrolein

0 1
C  -4.996821  -1.379286   0.830256
O  -3.925506  -0.877586   0.723948
C  -5.221599  -2.802888   1.069260
C  -6.401814  -3.330814   1.462353
H  -4.330507  -3.392204   0.963660
H  -7.328440  -2.726673   1.345632
H  -6.481697  -4.254507   1.836727
H  -5.904004  -0.757216   0.813654
