%chk=/home/boittier/MDCM/nms_sampling/acrolein_geom.xyz.dir/acrolein_820.chk
%nproc=8
%mem=16000MB
#p B2PLYPD3/Def2QZVP 

acrolein

0 1
C  -4.997955  -1.390513   0.889349
O  -3.932888  -0.860868   0.663950
C  -5.186645  -2.835859   1.127212
C  -6.420811  -3.297418   1.402981
H  -4.301136  -3.463551   1.167615
H  -7.284368  -2.648917   1.429871
H  -6.608415  -4.359109   1.649389
H  -5.896165  -0.782277   0.948168
