%chk=/home/boittier/MDCM/nms_sampling/acrolein_geom.xyz.dir/acrolein_1.chk
%nproc=8
%mem=16000MB
#p B2PLYPD3/Def2QZVP 

acrolein

0 1
C  -5.013888  -1.367895   0.911061
O  -3.927750  -0.880070   0.646545
C  -5.191373  -2.810658   1.143718
C  -6.402180  -3.321186   1.389812
H  -4.333325  -3.415296   1.184350
H  -7.272267  -2.671107   1.406662
H  -6.561987  -4.397337   1.612232
H  -5.970660  -0.741786   0.968600
