%chk=/home/boittier/MDCM/nms_sampling/acrolein_geom.xyz.dir/acrolein_166.chk
%nproc=8
%mem=16000MB
#p B2PLYPD3/Def2QZVP 

acrolein

0 1
C  -5.011642  -1.380575   0.903766
O  -3.942616  -0.876614   0.648406
C  -5.194047  -2.805111   1.148737
C  -6.387985  -3.320983   1.387917
H  -4.316686  -3.408640   1.180107
H  -7.263926  -2.650299   1.436933
H  -6.567547  -4.382124   1.595053
H  -5.915154  -0.764763   0.977718

