%chk=/home/boittier/MDCM/nms_sampling/acrolein_geom.xyz.dir/acrolein_928.chk
%nproc=8
%mem=16000MB
#p B2PLYPD3/Def2QZVP 

acrolein

0 1
C  -4.984738  -1.391305   0.873485
O  -3.933654  -0.856576   0.662564
C  -5.181122  -2.841316   1.165127
C  -6.423381  -3.303113   1.392437
H  -4.379880  -3.433010   1.086804
H  -7.392696  -2.612858   1.531010
H  -6.571888  -4.311671   1.523588
H  -5.928945  -0.817426   0.938326
