%chk=/home/boittier/MDCM/nms_sampling/acrolein_geom.xyz.dir/acrolein_2187.chk
%nproc=8
%mem=16000MB
#p B2PLYPD3/Def2QZVP 

acrolein

0 1
C  -5.004833  -1.381567   0.956962
O  -3.947835  -0.889905   0.614287
C  -5.177324  -2.768411   1.195731
C  -6.383033  -3.325411   1.382800
H  -4.435017  -3.330034   1.057821
H  -7.173957  -2.650354   1.365254
H  -6.669970  -4.542107   1.367647
H  -6.017999  -0.827104   0.828414
