%chk=/home/boittier/MDCM/nms_sampling/acrolein_geom.xyz.dir/acrolein_2420.chk
%nproc=8
%mem=16000MB
#p B2PLYPD3/Def2QZVP 

acrolein

0 1
C  -4.991728  -1.396461   0.811463
O  -3.911565  -0.867927   0.717512
C  -5.217122  -2.804491   1.092355
C  -6.419772  -3.301602   1.432962
H  -4.395179  -3.464859   1.098873
H  -7.179731  -2.629659   1.547136
H  -6.570017  -4.434525   1.754360
H  -6.006894  -0.843975   0.930004
