%chk=/home/boittier/MDCM/nms_sampling/acrolein_geom.xyz.dir/acrolein_464.chk
%nproc=8
%mem=16000MB
#p B2PLYPD3/Def2QZVP 

acrolein

0 1
C  -4.994680  -1.398530   0.870421
O  -3.929133  -0.858725   0.677280
C  -5.198203  -2.822403   1.123542
C  -6.416945  -3.306583   1.418202
H  -4.294642  -3.450231   1.113916
H  -7.305539  -2.650633   1.448442
H  -6.562739  -4.347985   1.611476
H  -5.942816  -0.801308   0.902585

