%chk=/home/boittier/MDCM/nms_sampling/acrolein_geom.xyz.dir/acrolein_562.chk
%nproc=8
%mem=16000MB
#p B2PLYPD3/Def2QZVP 

acrolein

0 1
C  -5.006433  -1.393448   0.884415
O  -3.939151  -0.856211   0.670807
C  -5.185964  -2.840174   1.129232
C  -6.403943  -3.300327   1.409253
H  -4.291337  -3.454424   1.104502
H  -7.270660  -2.660340   1.472666
H  -6.573473  -4.321939   1.617370
H  -5.959430  -0.769756   0.858155

