%chk=/home/boittier/MDCM/nms_sampling/acrolein_geom.xyz.dir/acrolein_1061.chk
%nproc=8
%mem=16000MB
#p B2PLYPD3/Def2QZVP 

acrolein

0 1
C  -4.997917  -1.389992   0.842125
O  -3.940369  -0.862028   0.697869
C  -5.195377  -2.830397   1.122125
C  -6.414369  -3.296635   1.419150
H  -4.280508  -3.485848   1.029741
H  -7.188300  -2.680611   1.549398
H  -6.575118  -4.329200   1.670495
H  -5.898912  -0.819563   0.846218

