%chk=/home/boittier/MDCM/nms_sampling/acrolein_geom.xyz.dir/acrolein_155.chk
%nproc=8
%mem=16000MB
#p B2PLYPD3/Def2QZVP 

acrolein

0 1
C  -4.998569  -1.400870   0.872091
O  -3.934330  -0.859222   0.677210
C  -5.190866  -2.820536   1.137188
C  -6.414265  -3.302871   1.408035
H  -4.292146  -3.462614   1.041046
H  -7.319071  -2.666292   1.489913
H  -6.587345  -4.369442   1.634691
H  -5.897409  -0.784866   0.856354

