%chk=/home/boittier/MDCM/nms_sampling/acrolein_geom.xyz.dir/acrolein_2044.chk
%nproc=8
%mem=16000MB
#p B2PLYPD3/Def2QZVP 

acrolein

0 1
C  -5.027421  -1.374497   0.860974
O  -3.951895  -0.875285   0.712704
C  -5.157370  -2.803748   1.049745
C  -6.378444  -3.315944   1.447413
H  -4.392422  -3.370139   1.095714
H  -7.250230  -2.728409   1.403825
H  -6.577089  -4.452206   1.903781
H  -6.044367  -0.810570   0.767367
