%chk=/home/boittier/MDCM/nms_sampling/acrolein_geom.xyz.dir/acrolein_1811.chk
%nproc=8
%mem=16000MB
#p B2PLYPD3/Def2QZVP 

acrolein

0 1
C  -5.015106  -1.343111   0.817844
O  -3.933836  -0.883424   0.700125
C  -5.201864  -2.826882   1.130423
C  -6.392717  -3.322853   1.441805
H  -4.226794  -3.421962   1.067704
H  -7.365773  -2.731414   1.519846
H  -6.527538  -4.332374   1.462232
H  -5.912025  -0.795727   0.924189
