%chk=/home/boittier/MDCM/nms_sampling/acrolein_geom.xyz.dir/acrolein_1172.chk
%nproc=8
%mem=16000MB
#p B2PLYPD3/Def2QZVP 

acrolein

0 1
C  -4.992029  -1.403888   0.855441
O  -3.943196  -0.858315   0.689002
C  -5.195231  -2.824284   1.114665
C  -6.413084  -3.302928   1.435239
H  -4.287097  -3.412962   1.113573
H  -7.215091  -2.638141   1.517314
H  -6.582801  -4.330981   1.519899
H  -5.896038  -0.832116   0.819583

