%chk=/home/boittier/MDCM/nms_sampling/acrolein_geom.xyz.dir/acrolein_1045.chk
%nproc=8
%mem=16000MB
#p B2PLYPD3/Def2QZVP 

acrolein

0 1
C  -4.992644  -1.392545   0.882662
O  -3.928288  -0.856257   0.675939
C  -5.195535  -2.837562   1.134702
C  -6.419620  -3.305532   1.410535
H  -4.242052  -3.468353   1.038536
H  -7.366189  -2.668590   1.542013
H  -6.592264  -4.312343   1.586258
H  -5.951849  -0.755301   0.750772
