%chk=/home/boittier/MDCM/nms_sampling/acrolein_geom.xyz.dir/acrolein_1656.chk
%nproc=8
%mem=16000MB
#p B2PLYPD3/Def2QZVP 

acrolein

0 1
C  -5.008297  -1.361970   0.928866
O  -3.924941  -0.884603   0.634892
C  -5.197114  -2.813510   1.174864
C  -6.408472  -3.304912   1.377121
H  -4.355233  -3.451305   1.092089
H  -7.218896  -2.682722   1.474464
H  -6.619345  -4.449336   1.515037
H  -5.911683  -0.794424   0.851477
