%chk=/home/boittier/MDCM/nms_sampling/acrolein_geom.xyz.dir/acrolein_158.chk
%nproc=8
%mem=16000MB
#p B2PLYPD3/Def2QZVP 

acrolein

0 1
C  -5.006010  -1.386276   0.870554
O  -3.938948  -0.872303   0.678347
C  -5.195520  -2.804570   1.132314
C  -6.393395  -3.315183   1.408905
H  -4.309802  -3.420683   1.061128
H  -7.256551  -2.673467   1.486141
H  -6.600133  -4.393227   1.649066
H  -5.946644  -0.800612   0.871555

