%chk=/home/boittier/MDCM/nms_sampling/acrolein_geom.xyz.dir/acrolein_2212.chk
%nproc=8
%mem=16000MB
#p B2PLYPD3/Def2QZVP 

acrolein

0 1
C  -5.008259  -1.414024   0.829701
O  -3.943609  -0.848893   0.704676
C  -5.180777  -2.817536   1.094498
C  -6.414451  -3.314727   1.414160
H  -4.176564  -3.418176   1.156396
H  -7.257072  -2.702005   1.523700
H  -6.517820  -4.326932   1.832318
H  -5.999129  -0.753516   0.997080

