%chk=/home/boittier/MDCM/nms_sampling/acrolein_geom.xyz.dir/acrolein_1918.chk
%nproc=8
%mem=16000MB
#p B2PLYPD3/Def2QZVP 

acrolein

0 1
C  -5.017093  -1.362726   0.843518
O  -3.926650  -0.892974   0.718317
C  -5.199549  -2.792283   1.092005
C  -6.392847  -3.334445   1.443079
H  -4.398366  -3.362853   0.967840
H  -7.310360  -2.712835   1.667816
H  -6.588950  -4.337067   1.650427
H  -5.831981  -0.741863   0.553542
