%chk=/home/boittier/MDCM/nms_sampling/acrolein_geom.xyz.dir/acrolein_890.chk
%nproc=8
%mem=16000MB
#p B2PLYPD3/Def2QZVP 

acrolein

0 1
C  -5.018644  -1.367397   0.906138
O  -3.938724  -0.878920   0.644415
C  -5.188004  -2.814368   1.168638
C  -6.390389  -3.315682   1.390906
H  -4.327038  -3.419051   1.083380
H  -7.249973  -2.665793   1.387800
H  -6.558008  -4.407994   1.534653
H  -5.946347  -0.776159   0.958104
