%chk=/home/boittier/MDCM/nms_sampling/acrolein_geom.xyz.dir/acrolein_36.chk
%nproc=8
%mem=16000MB
#p B2PLYPD3/Def2QZVP 

acrolein

0 1
C  -4.996969  -1.394321   0.871168
O  -3.932440  -0.864155   0.678622
C  -5.194600  -2.818813   1.127766
C  -6.417115  -3.310098   1.423366
H  -4.306928  -3.454094   1.075209
H  -7.303196  -2.643231   1.470435
H  -6.581311  -4.334580   1.557461
H  -5.870465  -0.782217   0.835826

