%chk=/home/boittier/MDCM/nms_sampling/acrolein_geom.xyz.dir/acrolein_125.chk
%nproc=8
%mem=16000MB
#p B2PLYPD3/Def2QZVP 

acrolein

0 1
C  -5.002238  -1.390408   0.879871
O  -3.938394  -0.869110   0.669237
C  -5.186856  -2.807125   1.135658
C  -6.407477  -3.311288   1.416982
H  -4.308578  -3.424075   1.108107
H  -7.259916  -2.664697   1.461861
H  -6.588990  -4.417183   1.523781
H  -5.945926  -0.795578   0.868569

