%chk=/home/boittier/MDCM/nms_sampling/acrolein_geom.xyz.dir/acrolein_1496.chk
%nproc=8
%mem=16000MB
#p B2PLYPD3/Def2QZVP 

acrolein

0 1
C  -4.992654  -1.388256   0.898806
O  -3.927033  -0.860846   0.658007
C  -5.201337  -2.837610   1.153390
C  -6.411859  -3.308460   1.392449
H  -4.338425  -3.438868   1.083457
H  -7.328416  -2.621567   1.528753
H  -6.550967  -4.295530   1.558903
H  -5.962863  -0.768854   0.825067
