%chk=/home/boittier/MDCM/nms_sampling/acrolein_geom.xyz.dir/acrolein_2625.chk
%nproc=8
%mem=16000MB
#p B2PLYPD3/Def2QZVP 

acrolein

0 1
C  -4.991495  -1.424464   0.954987
O  -3.927613  -0.838995   0.612159
C  -5.193887  -2.837037   1.195970
C  -6.437804  -3.293229   1.387356
H  -4.140675  -3.447831   1.072711
H  -7.307714  -2.637670   1.307299
H  -6.569345  -4.393383   1.352103
H  -5.966453  -0.782818   0.886785

