%chk=/home/boittier/MDCM/nms_sampling/acrolein_geom.xyz.dir/acrolein_1011.chk
%nproc=8
%mem=16000MB
#p B2PLYPD3/Def2QZVP 

acrolein

0 1
C  -5.016237  -1.364866   0.868497
O  -3.928852  -0.876801   0.682233
C  -5.185378  -2.820481   1.106859
C  -6.399559  -3.317443   1.414617
H  -4.352779  -3.417240   1.180551
H  -7.258499  -2.699167   1.509693
H  -6.573744  -4.360376   1.670774
H  -6.007558  -0.762783   0.892548
