%chk=/home/boittier/MDCM/nms_sampling/acrolein_geom.xyz.dir/acrolein_1347.chk
%nproc=8
%mem=16000MB
#p B2PLYPD3/Def2QZVP 

acrolein

0 1
C  -5.016221  -1.375931   0.890865
O  -3.932207  -0.882885   0.664192
C  -5.193866  -2.799357   1.149503
C  -6.395073  -3.313525   1.414488
H  -4.318114  -3.413465   1.019364
H  -7.217695  -2.664029   1.421350
H  -6.609495  -4.491365   1.521820
H  -5.943929  -0.741323   0.825712
