%chk=/home/boittier/MDCM/nms_sampling/acrolein_geom.xyz.dir/acrolein_241.chk
%nproc=8
%mem=16000MB
#p B2PLYPD3/Def2QZVP 

acrolein

0 1
C  -5.014671  -1.384313   0.921149
O  -3.937443  -0.874268   0.636468
C  -5.195352  -2.799231   1.170616
C  -6.388984  -3.322754   1.388502
H  -4.311259  -3.431630   1.100772
H  -7.257186  -2.670945   1.386169
H  -6.556997  -4.384402   1.503440
H  -5.961882  -0.761276   0.925949
