%chk=/home/boittier/MDCM/nms_sampling/acrolein_geom.xyz.dir/acrolein_833.chk
%nproc=8
%mem=16000MB
#p B2PLYPD3/Def2QZVP 

acrolein

0 1
C  -5.001478  -1.384731   0.887783
O  -3.933590  -0.862407   0.669927
C  -5.188894  -2.828874   1.123796
C  -6.412161  -3.310689   1.419190
H  -4.305649  -3.448079   1.091799
H  -7.312891  -2.675518   1.377043
H  -6.548004  -4.310775   1.625443
H  -5.950362  -0.792246   0.884655
