%chk=/home/boittier/MDCM/nms_sampling/acrolein_geom.xyz.dir/acrolein_1198.chk
%nproc=8
%mem=16000MB
#p B2PLYPD3/Def2QZVP 

acrolein

0 1
C  -5.020749  -1.378896   0.930047
O  -3.935430  -0.878241   0.625641
C  -5.186800  -2.792080   1.162394
C  -6.394884  -3.328014   1.367262
H  -4.259949  -3.439113   1.260866
H  -7.172879  -2.652247   1.406742
H  -6.611456  -4.436703   1.586220
H  -6.024311  -0.741953   1.059013

