%chk=/home/boittier/MDCM/nms_sampling/acrolein_geom.xyz.dir/acrolein_2491.chk
%nproc=8
%mem=16000MB
#p B2PLYPD3/Def2QZVP 

acrolein

0 1
C  -4.988188  -1.440108   0.842122
O  -3.948116  -0.838325   0.703161
C  -5.194678  -2.822910   1.093084
C  -6.406007  -3.297590   1.425359
H  -4.147043  -3.409704   1.176714
H  -7.294105  -2.681292   1.661156
H  -6.645840  -4.358186   1.640977
H  -5.975990  -0.770602   0.788081
