%chk=/home/boittier/MDCM/nms_sampling/acrolein_geom.xyz.dir/acrolein_968.chk
%nproc=8
%mem=16000MB
#p B2PLYPD3/Def2QZVP 

acrolein

0 1
C  -5.006170  -1.378394   0.882219
O  -3.920033  -0.873228   0.676449
C  -5.197597  -2.813226   1.107041
C  -6.412833  -3.312404   1.409986
H  -4.276209  -3.454331   1.173098
H  -7.285270  -2.670158   1.478475
H  -6.649153  -4.412815   1.705405
H  -5.953551  -0.763480   0.881387

