%chk=/home/boittier/MDCM/nms_sampling/acrolein_geom.xyz.dir/acrolein_39.chk
%nproc=8
%mem=16000MB
#p B2PLYPD3/Def2QZVP 

acrolein

0 1
C  -5.000799  -1.387413   0.866183
O  -3.926849  -0.873020   0.679444
C  -5.194148  -2.802759   1.122373
C  -6.412403  -3.316868   1.418786
H  -4.336854  -3.436281   1.097642
H  -7.273753  -2.657772   1.410113
H  -6.605902  -4.397559   1.653826
H  -5.944804  -0.767155   0.940291

