%chk=/home/boittier/MDCM/nms_sampling/acrolein_geom.xyz.dir/acrolein_2195.chk
%nproc=8
%mem=16000MB
#p B2PLYPD3/Def2QZVP 

acrolein

0 1
C  -4.995792  -1.378781   0.941374
O  -3.925450  -0.876468   0.620310
C  -5.203661  -2.786411   1.184496
C  -6.413080  -3.334300   1.389082
H  -4.334022  -3.462434   1.125963
H  -7.323253  -2.682324   1.366926
H  -6.508455  -4.338183   1.365441
H  -5.970966  -0.816379   0.900602

