%chk=/home/boittier/MDCM/nms_sampling/acrolein_geom.xyz.dir/acrolein_2538.chk
%nproc=8
%mem=16000MB
#p B2PLYPD3/Def2QZVP 

acrolein

0 1
C  -5.009339  -1.352502   0.948930
O  -3.916758  -0.888802   0.609649
C  -5.212917  -2.811744   1.196794
C  -6.397695  -3.322808   1.376022
H  -4.293332  -3.401858   1.069269
H  -7.199082  -2.734831   1.149360
H  -6.573902  -4.403977   1.535740
H  -6.102690  -0.699207   1.103330
