%chk=/home/boittier/MDCM/nms_sampling/acrolein_geom.xyz.dir/acrolein_2104.chk
%nproc=8
%mem=16000MB
#p B2PLYPD3/Def2QZVP 

acrolein

0 1
C  -4.999242  -1.415820   0.900038
O  -3.952551  -0.832384   0.669724
C  -5.147608  -2.867838   1.145498
C  -6.429753  -3.268918   1.400974
H  -4.232400  -3.452165   0.984594
H  -7.348135  -2.665609   1.585181
H  -6.641947  -4.398285   1.580828
H  -5.901192  -0.863316   0.650399
