%chk=/home/boittier/MDCM/nms_sampling/acrolein_geom.xyz.dir/acrolein_2106.chk
%nproc=8
%mem=16000MB
#p B2PLYPD3/Def2QZVP 

acrolein

0 1
C  -5.008240  -1.361954   0.935534
O  -3.935104  -0.889250   0.630450
C  -5.198528  -2.808038   1.142483
C  -6.377530  -3.324593   1.394738
H  -4.491857  -3.430668   1.246573
H  -7.308708  -2.588914   1.315383
H  -6.560296  -4.369384   1.540066
H  -5.921363  -0.723798   0.988980

