%chk=/home/boittier/MDCM/nms_sampling/acrolein_geom.xyz.dir/acrolein_86.chk
%nproc=8
%mem=16000MB
#p B2PLYPD3/Def2QZVP 

acrolein

0 1
C  -5.002963  -1.393066   0.907488
O  -3.941812  -0.861972   0.649957
C  -5.191723  -2.829031   1.155154
C  -6.406365  -3.304171   1.392170
H  -4.259211  -3.439950   1.106379
H  -7.239064  -2.635249   1.451853
H  -6.580111  -4.359928   1.558495
H  -5.915701  -0.774393   0.886284
