%chk=/home/boittier/MDCM/nms_sampling/acrolein_geom.xyz.dir/acrolein_1132.chk
%nproc=8
%mem=16000MB
#p B2PLYPD3/Def2QZVP 

acrolein

0 1
C  -4.994150  -1.395431   0.937671
O  -3.923267  -0.864893   0.629156
C  -5.190868  -2.821761   1.177881
C  -6.420343  -3.303393   1.370925
H  -4.385760  -3.445189   1.097597
H  -7.297583  -2.615039   1.453392
H  -6.619054  -4.394331   1.537814
H  -5.937426  -0.760721   0.868577
