%chk=/home/boittier/MDCM/nms_sampling/acrolein_geom.xyz.dir/acrolein_2401.chk
%nproc=8
%mem=16000MB
#p B2PLYPD3/Def2QZVP 

acrolein

0 1
C  -4.981454  -1.429719   0.996377
O  -3.924728  -0.837572   0.584160
C  -5.191631  -2.853946   1.192295
C  -6.430172  -3.264854   1.330127
H  -4.384950  -3.520429   1.234952
H  -7.359694  -2.662770   1.246387
H  -6.639182  -4.359989   1.683838
H  -5.881040  -0.783922   1.112982

