%chk=/home/boittier/MDCM/nms_sampling/acrolein_geom.xyz.dir/acrolein_1789.chk
%nproc=8
%mem=16000MB
#p B2PLYPD3/Def2QZVP 

acrolein

0 1
C  -5.005483  -1.371617   0.861214
O  -3.924079  -0.876237   0.691617
C  -5.198806  -2.822250   1.109888
C  -6.415058  -3.308800   1.420446
H  -4.326325  -3.420931   1.025843
H  -7.176234  -2.678884   1.401080
H  -6.616304  -4.357232   1.787016
H  -5.932742  -0.797684   0.892662

