%chk=/home/boittier/MDCM/nms_sampling/acrolein_geom.xyz.dir/acrolein_826.chk
%nproc=8
%mem=16000MB
#p B2PLYPD3/Def2QZVP 

acrolein

0 1
C  -5.007900  -1.388345   0.914812
O  -3.941223  -0.869471   0.639560
C  -5.193447  -2.813586   1.164520
C  -6.396809  -3.305132   1.379252
H  -4.324233  -3.449392   1.125607
H  -7.229739  -2.659995   1.380470
H  -6.575070  -4.398402   1.614155
H  -5.906278  -0.801946   1.000887
