%chk=/home/boittier/MDCM/nms_sampling/acrolein_geom.xyz.dir/acrolein_2546.chk
%nproc=8
%mem=16000MB
#p B2PLYPD3/Def2QZVP 

acrolein

0 1
C  -5.036139  -1.379763   0.931620
O  -3.952794  -0.887723   0.596821
C  -5.168321  -2.751461   1.240143
C  -6.365072  -3.352434   1.330650
H  -4.365406  -3.409493   1.211549
H  -7.308607  -2.675266   1.465955
H  -6.516889  -4.468979   1.384165
H  -5.991654  -0.742571   1.192447
