%chk=/home/boittier/MDCM/nms_sampling/acrolein_geom.xyz.dir/acrolein_1248.chk
%nproc=8
%mem=16000MB
#p B2PLYPD3/Def2QZVP 

acrolein

0 1
C  -4.993825  -1.381211   0.925238
O  -3.934970  -0.860488   0.627061
C  -5.180091  -2.849659   1.197438
C  -6.424337  -3.293656   1.371927
H  -4.313948  -3.448556   1.048364
H  -7.334762  -2.667276   1.385652
H  -6.580853  -4.349595   1.496708
H  -5.915375  -0.782782   0.966628
