%chk=/home/boittier/MDCM/nms_sampling/acrolein_geom.xyz.dir/acrolein_2059.chk
%nproc=8
%mem=16000MB
#p B2PLYPD3/Def2QZVP 

acrolein

0 1
C  -4.973573  -1.424359   0.922856
O  -3.917104  -0.833235   0.613431
C  -5.200771  -2.873274   1.205410
C  -6.445716  -3.267413   1.367753
H  -4.279757  -3.464793   1.210941
H  -7.276780  -2.637354   1.404237
H  -6.657701  -4.312763   1.354499
H  -5.968052  -0.796317   1.104797
