%chk=/home/boittier/MDCM/nms_sampling/acrolein_geom.xyz.dir/acrolein_2161.chk
%nproc=8
%mem=16000MB
#p B2PLYPD3/Def2QZVP 

acrolein

0 1
C  -4.990187  -1.380131   0.832500
O  -3.915304  -0.863889   0.716407
C  -5.194109  -2.852137   1.053873
C  -6.448131  -3.286657   1.463455
H  -4.297366  -3.423326   1.202991
H  -7.227648  -2.667992   1.475683
H  -6.695896  -4.336029   1.679367
H  -5.824610  -0.845096   0.834262
