%chk=/home/boittier/MDCM/nms_sampling/acrolein_geom.xyz.dir/acrolein_1974.chk
%nproc=8
%mem=16000MB
#p B2PLYPD3/Def2QZVP 

acrolein

0 1
C  -5.001918  -1.385329   0.992638
O  -3.932522  -0.851850   0.584979
C  -5.185636  -2.864482   1.178954
C  -6.428053  -3.296977   1.364189
H  -4.359397  -3.541161   1.282284
H  -7.334264  -2.634572   1.144298
H  -6.431350  -4.189824   1.518124
H  -5.854971  -0.735135   1.119136
