%chk=/home/boittier/MDCM/nms_sampling/acrolein_geom.xyz.dir/acrolein_420.chk
%nproc=8
%mem=16000MB
#p B2PLYPD3/Def2QZVP 

acrolein

0 1
C  -5.002807  -1.383670   0.875137
O  -3.927310  -0.864625   0.675824
C  -5.193161  -2.828887   1.132975
C  -6.414620  -3.302730   1.406739
H  -4.303014  -3.456529   1.053891
H  -7.274825  -2.665323   1.453178
H  -6.584757  -4.375706   1.677190
H  -5.955479  -0.795930   0.889141

