%chk=/home/boittier/MDCM/nms_sampling/acrolein_geom.xyz.dir/acrolein_1486.chk
%nproc=8
%mem=16000MB
#p B2PLYPD3/Def2QZVP 

acrolein

0 1
C  -5.009537  -1.390692   0.937400
O  -3.944940  -0.848439   0.630722
C  -5.174558  -2.858409   1.149086
C  -6.401944  -3.290901   1.394201
H  -4.283393  -3.465296   1.169986
H  -7.334613  -2.667901   1.259670
H  -6.558679  -4.312265   1.584017
H  -5.952088  -0.814814   0.988838
