%chk=/home/boittier/MDCM/nms_sampling/acrolein_geom.xyz.dir/acrolein_8.chk
%nproc=8
%mem=16000MB
#p B2PLYPD3/Def2QZVP 

acrolein

0 1
C  -5.004804  -1.399646   0.918726
O  -3.939614  -0.854578   0.638979
C  -5.187593  -2.831281   1.167718
C  -6.401277  -3.303564   1.383727
H  -4.316655  -3.468254   1.118659
H  -7.296097  -2.660312   1.440637
H  -6.550148  -4.314410   1.523463
H  -5.960913  -0.782481   0.909887
