%chk=/home/boittier/MDCM/nms_sampling/acrolein_geom.xyz.dir/acrolein_2151.chk
%nproc=8
%mem=16000MB
#p B2PLYPD3/Def2QZVP 

acrolein

0 1
C  -5.016261  -1.368211   0.824815
O  -3.938639  -0.893348   0.721207
C  -5.211649  -2.780270   1.101230
C  -6.386419  -3.333925   1.468596
H  -4.195062  -3.361873   0.914902
H  -7.129541  -2.655644   1.526261
H  -6.602993  -4.478930   1.528840
H  -5.946442  -0.743746   0.641059
