%chk=/home/boittier/MDCM/nms_sampling/acrolein_geom.xyz.dir/acrolein_807.chk
%nproc=8
%mem=16000MB
#p B2PLYPD3/Def2QZVP 

acrolein

0 1
C  -5.013268  -1.377645   0.901073
O  -3.942356  -0.878492   0.646033
C  -5.194009  -2.800764   1.156220
C  -6.387056  -3.322026   1.390794
H  -4.308306  -3.432718   1.154407
H  -7.261147  -2.673372   1.368354
H  -6.577366  -4.382069   1.582953
H  -5.916112  -0.764541   1.034220

