%chk=/home/boittier/MDCM/nms_sampling/acrolein_geom.xyz.dir/acrolein_1453.chk
%nproc=8
%mem=16000MB
#p B2PLYPD3/Def2QZVP 

acrolein

0 1
C  -5.015260  -1.384067   0.876625
O  -3.943908  -0.876479   0.683605
C  -5.190948  -2.795562   1.121268
C  -6.390424  -3.317872   1.421128
H  -4.356215  -3.432377   1.032108
H  -7.198530  -2.662226   1.510910
H  -6.540238  -4.397602   1.618399
H  -5.907917  -0.813765   0.743340
