%chk=/home/boittier/MDCM/nms_sampling/acrolein_geom.xyz.dir/acrolein_1906.chk
%nproc=8
%mem=16000MB
#p B2PLYPD3/Def2QZVP 

acrolein

0 1
C  -5.023772  -1.334134   0.960529
O  -3.917405  -0.900310   0.590361
C  -5.208945  -2.798026   1.222214
C  -6.393895  -3.333852   1.328079
H  -4.329384  -3.397308   1.276680
H  -7.351317  -2.726216   1.521958
H  -6.537329  -4.398482   1.393404
H  -5.865661  -0.796290   1.061721
