%chk=/home/boittier/MDCM/nms_sampling/acrolein_geom.xyz.dir/acrolein_2125.chk
%nproc=8
%mem=16000MB
#p B2PLYPD3/Def2QZVP 

acrolein

0 1
C  -4.960194  -1.431473   0.830087
O  -3.917694  -0.833749   0.707583
C  -5.213797  -2.850462   1.131436
C  -6.438212  -3.287530   1.448649
H  -4.334114  -3.507979   0.877091
H  -7.378062  -2.614829   1.483860
H  -6.593423  -4.232525   1.537110
H  -5.976989  -0.797994   0.745328

