%chk=/home/boittier/MDCM/nms_sampling/acrolein_geom.xyz.dir/acrolein_378.chk
%nproc=8
%mem=16000MB
#p B2PLYPD3/Def2QZVP 

acrolein

0 1
C  -5.002052  -1.398326   0.872916
O  -3.941223  -0.855644   0.678060
C  -5.185013  -2.830027   1.129628
C  -6.404360  -3.303357   1.410320
H  -4.330878  -3.464870   1.049280
H  -7.284324  -2.667744   1.439765
H  -6.552276  -4.310167   1.683962
H  -5.956140  -0.797234   0.889823

