%chk=/home/boittier/MDCM/nms_sampling/acrolein_geom.xyz.dir/acrolein_553.chk
%nproc=8
%mem=16000MB
#p B2PLYPD3/Def2QZVP 

acrolein

0 1
C  -5.001370  -1.395764   0.914164
O  -3.937902  -0.854709   0.637668
C  -5.184514  -2.837517   1.168997
C  -6.413599  -3.299997   1.379317
H  -4.290066  -3.462826   1.166064
H  -7.257870  -2.628891   1.470464
H  -6.578828  -4.335708   1.508636
H  -5.949827  -0.809351   0.951959

