%chk=/home/boittier/MDCM/nms_sampling/acrolein_geom.xyz.dir/acrolein_1907.chk
%nproc=8
%mem=16000MB
#p B2PLYPD3/Def2QZVP 

acrolein

0 1
C  -4.971299  -1.418154   0.838486
O  -3.932222  -0.843888   0.714050
C  -5.191809  -2.835724   1.085215
C  -6.422921  -3.289253   1.437059
H  -4.321944  -3.435922   1.100976
H  -7.480888  -2.658841   1.682543
H  -6.650089  -4.356607   1.646933
H  -5.906995  -0.870900   0.671774

