%chk=/home/boittier/MDCM/nms_sampling/acrolein_geom.xyz.dir/acrolein_1230.chk
%nproc=8
%mem=16000MB
#p B2PLYPD3/Def2QZVP 

acrolein

0 1
C  -5.007800  -1.399284   0.919808
O  -3.937998  -0.865186   0.641725
C  -5.190986  -2.804576   1.141241
C  -6.396267  -3.311519   1.396733
H  -4.350734  -3.456038   1.178453
H  -7.223849  -2.697328   1.307909
H  -6.564835  -4.362189   1.613059
H  -5.988500  -0.763419   0.997263

