%chk=/home/boittier/MDCM/nms_sampling/acrolein_geom.xyz.dir/acrolein_2480.chk
%nproc=8
%mem=16000MB
#p B2PLYPD3/Def2QZVP 

acrolein

0 1
C  -4.989356  -1.416144   0.971585
O  -3.951305  -0.835028   0.593040
C  -5.168356  -2.842757   1.178495
C  -6.412502  -3.301645   1.338328
H  -4.270727  -3.493071   1.392554
H  -7.513859  -2.600028   1.402696
H  -6.508362  -4.309478   1.551402
H  -5.946138  -0.840704   1.127616
