%chk=/home/boittier/MDCM/nms_sampling/acrolein_geom.xyz.dir/acrolein_855.chk
%nproc=8
%mem=16000MB
#p B2PLYPD3/Def2QZVP 

acrolein

0 1
C  -5.001297  -1.388400   0.907445
O  -3.931300  -0.857660   0.641943
C  -5.189421  -2.836551   1.157820
C  -6.412744  -3.305885   1.389138
H  -4.303604  -3.473405   1.164407
H  -7.314406  -2.654800   1.360962
H  -6.564547  -4.303048   1.571595
H  -5.960192  -0.791108   1.032321

