%chk=/home/boittier/MDCM/nms_sampling/acrolein_geom.xyz.dir/acrolein_117.chk
%nproc=8
%mem=16000MB
#p B2PLYPD3/Def2QZVP 

acrolein

0 1
C  -4.999449  -1.395188   0.911517
O  -3.937369  -0.863631   0.639564
C  -5.196647  -2.814590   1.167070
C  -6.408905  -3.308875   1.382753
H  -4.283626  -3.455075   1.156404
H  -7.251972  -2.678184   1.448461
H  -6.568361  -4.346264   1.516388
H  -5.923180  -0.798781   0.961175

