%chk=/home/boittier/MDCM/nms_sampling/acrolein_geom.xyz.dir/acrolein_349.chk
%nproc=8
%mem=16000MB
#p B2PLYPD3/Def2QZVP 

acrolein

0 1
C  -4.998939  -1.401694   0.909119
O  -3.939474  -0.856449   0.645357
C  -5.195037  -2.832050   1.150236
C  -6.408376  -3.300471   1.397201
H  -4.305646  -3.435982   1.156749
H  -7.262900  -2.634469   1.368687
H  -6.563642  -4.320128   1.553487
H  -5.886591  -0.811825   0.973296

