%chk=/home/boittier/MDCM/nms_sampling/acrolein_geom.xyz.dir/acrolein_938.chk
%nproc=8
%mem=16000MB
#p B2PLYPD3/Def2QZVP 

acrolein

0 1
C  -5.006159  -1.401086   0.862456
O  -3.935347  -0.869050   0.675573
C  -5.200380  -2.794724   1.147299
C  -6.395517  -3.318110   1.403699
H  -4.293258  -3.390078   1.088956
H  -7.227674  -2.669682   1.571655
H  -6.574813  -4.422012   1.543189
H  -5.990620  -0.765019   0.879136

