%chk=/home/boittier/MDCM/nms_sampling/acrolein_geom.xyz.dir/acrolein_2081.chk
%nproc=8
%mem=16000MB
#p B2PLYPD3/Def2QZVP 

acrolein

0 1
C  -4.987565  -1.375676   0.933623
O  -3.923222  -0.862378   0.616008
C  -5.194042  -2.843055   1.170471
C  -6.414760  -3.311097   1.344643
H  -4.345519  -3.425827   1.320384
H  -7.497827  -2.614188   1.391564
H  -6.567010  -4.322593   1.676668
H  -5.955711  -0.801211   1.197940
