%chk=/home/boittier/MDCM/nms_sampling/acrolein_geom.xyz.dir/acrolein_337.chk
%nproc=8
%mem=16000MB
#p B2PLYPD3/Def2QZVP 

acrolein

0 1
C  -4.994991  -1.397024   0.865195
O  -3.932808  -0.858193   0.677623
C  -5.197107  -2.829605   1.134279
C  -6.412641  -3.302729   1.420267
H  -4.288672  -3.437904   1.087875
H  -7.289163  -2.664575   1.484232
H  -6.582259  -4.335861   1.534475
H  -5.944689  -0.800248   0.874746

