%chk=/home/boittier/MDCM/nms_sampling/acrolein_geom.xyz.dir/acrolein_799.chk
%nproc=8
%mem=16000MB
#p B2PLYPD3/Def2QZVP 

acrolein

0 1
C  -4.997345  -1.389550   0.878141
O  -3.937438  -0.862181   0.668250
C  -5.183462  -2.831338   1.135194
C  -6.412643  -3.301456   1.399568
H  -4.342692  -3.460585   1.133230
H  -7.311745  -2.664304   1.461572
H  -6.575308  -4.349798   1.653564
H  -5.930811  -0.769481   0.957897
