%chk=/home/boittier/MDCM/nms_sampling/acrolein_geom.xyz.dir/acrolein_2328.chk
%nproc=8
%mem=16000MB
#p B2PLYPD3/Def2QZVP 

acrolein

0 1
C  -5.014256  -1.382031   0.875542
O  -3.960094  -0.848547   0.674139
C  -5.156531  -2.862746   1.130691
C  -6.406898  -3.295290   1.396354
H  -4.290926  -3.516088   1.072405
H  -7.354939  -2.608335   1.414431
H  -6.484873  -4.274932   1.782859
H  -5.849068  -0.845669   0.974273

