%chk=/home/boittier/MDCM/nms_sampling/acrolein_geom.xyz.dir/acrolein_713.chk
%nproc=8
%mem=16000MB
#p B2PLYPD3/Def2QZVP 

acrolein

0 1
C  -5.007058  -1.388139   0.920434
O  -3.944335  -0.863669   0.642252
C  -5.184937  -2.824477   1.148811
C  -6.401722  -3.309770   1.387375
H  -4.319041  -3.429716   1.146440
H  -7.307078  -2.656651   1.366515
H  -6.529067  -4.332191   1.631811
H  -5.887804  -0.807311   0.958311

