%chk=/home/boittier/MDCM/nms_sampling/acrolein_geom.xyz.dir/acrolein_259.chk
%nproc=8
%mem=16000MB
#p B2PLYPD3/Def2QZVP 

acrolein

0 1
C  -5.005065  -1.381352   0.901853
O  -3.932168  -0.873580   0.648400
C  -5.198679  -2.813338   1.168274
C  -6.404743  -3.309558   1.393807
H  -4.338872  -3.432710   1.060051
H  -7.228700  -2.684062   1.404307
H  -6.575052  -4.369133   1.529172
H  -5.916208  -0.793541   0.930128

