%chk=/home/boittier/MDCM/nms_sampling/acrolein_geom.xyz.dir/acrolein_993.chk
%nproc=8
%mem=16000MB
#p B2PLYPD3/Def2QZVP 

acrolein

0 1
C  -5.001910  -1.377867   0.907910
O  -3.928843  -0.869817   0.644163
C  -5.198088  -2.829640   1.175649
C  -6.408012  -3.301898   1.380301
H  -4.378265  -3.462220   1.061408
H  -7.300976  -2.636878   1.451302
H  -6.544600  -4.367585   1.555250
H  -5.896232  -0.799276   0.921358
