%chk=/home/boittier/MDCM/nms_sampling/acrolein_geom.xyz.dir/acrolein_687.chk
%nproc=8
%mem=16000MB
#p B2PLYPD3/Def2QZVP 

acrolein

0 1
C  -5.011688  -1.376237   0.877089
O  -3.943425  -0.878588   0.676771
C  -5.190497  -2.804689   1.130740
C  -6.390291  -3.317526   1.419395
H  -4.347976  -3.440625   1.047411
H  -7.228111  -2.685373   1.461351
H  -6.562217  -4.372333   1.585457
H  -5.925799  -0.765507   0.819356

