%chk=/home/boittier/MDCM/nms_sampling/acrolein_geom.xyz.dir/acrolein_1567.chk
%nproc=8
%mem=16000MB
#p B2PLYPD3/Def2QZVP 

acrolein

0 1
C  -5.001211  -1.390663   0.902524
O  -3.949469  -0.858638   0.664506
C  -5.185852  -2.847357   1.121648
C  -6.403256  -3.289228   1.407223
H  -4.293409  -3.442716   1.110795
H  -7.274093  -2.616752   1.401813
H  -6.581512  -4.366937   1.684231
H  -5.847324  -0.817733   0.859194

