%chk=/home/boittier/MDCM/nms_sampling/acrolein_geom.xyz.dir/acrolein_419.chk
%nproc=8
%mem=16000MB
#p B2PLYPD3/Def2QZVP 

acrolein

0 1
C  -5.012196  -1.367120   0.872837
O  -3.931815  -0.881340   0.675405
C  -5.193985  -2.812703   1.142612
C  -6.399280  -3.317400   1.408864
H  -4.341915  -3.416435   1.025548
H  -7.256174  -2.667436   1.479901
H  -6.568897  -4.391364   1.608193
H  -5.927518  -0.759077   0.855416

