%chk=/home/boittier/MDCM/nms_sampling/acrolein_geom.xyz.dir/acrolein_19.chk
%nproc=8
%mem=16000MB
#p B2PLYPD3/Def2QZVP 

acrolein

0 1
C  -5.008787  -1.383882   0.888161
O  -3.933553  -0.871755   0.657847
C  -5.195423  -2.811915   1.154584
C  -6.397686  -3.311675   1.403657
H  -4.331097  -3.424775   1.092995
H  -7.218073  -2.669657   1.424908
H  -6.598754  -4.381945   1.526214
H  -5.962758  -0.794206   0.934102
