%chk=/home/boittier/MDCM/nms_sampling/acrolein_geom.xyz.dir/acrolein_1439.chk
%nproc=8
%mem=16000MB
#p B2PLYPD3/Def2QZVP 

acrolein

0 1
C  -5.008369  -1.378160   0.945574
O  -3.926902  -0.881195   0.623769
C  -5.203850  -2.793357   1.165401
C  -6.401726  -3.316551   1.370730
H  -4.331027  -3.441603   1.161020
H  -7.233260  -2.648876   1.347822
H  -6.593948  -4.455424   1.615674
H  -5.918848  -0.803593   0.972406

