%chk=/home/boittier/MDCM/nms_sampling/acrolein_geom.xyz.dir/acrolein_1154.chk
%nproc=8
%mem=16000MB
#p B2PLYPD3/Def2QZVP 

acrolein

0 1
C  -5.012277  -1.372238   0.924842
O  -3.935517  -0.871497   0.632211
C  -5.189451  -2.822132   1.171180
C  -6.393629  -3.313920   1.392723
H  -4.338831  -3.462530   1.137330
H  -7.240911  -2.652775   1.387012
H  -6.548113  -4.366321   1.431726
H  -6.028456  -0.769855   0.923308

