%chk=/home/boittier/MDCM/nms_sampling/acrolein_geom.xyz.dir/acrolein_507.chk
%nproc=8
%mem=16000MB
#p B2PLYPD3/Def2QZVP 

acrolein

0 1
C  -5.005434  -1.394137   0.872020
O  -3.937901  -0.856584   0.672351
C  -5.187070  -2.833348   1.141472
C  -6.408961  -3.300182   1.411386
H  -4.279069  -3.476874   1.078192
H  -7.260394  -2.645387   1.476942
H  -6.559071  -4.357119   1.559439
H  -5.957566  -0.793607   0.890020

