%chk=/home/boittier/MDCM/nms_sampling/acrolein_geom.xyz.dir/acrolein_1113.chk
%nproc=8
%mem=16000MB
#p B2PLYPD3/Def2QZVP 

acrolein

0 1
C  -5.010993  -1.379771   0.870445
O  -3.949249  -0.878994   0.686115
C  -5.189342  -2.804795   1.123489
C  -6.384909  -3.312374   1.420701
H  -4.368389  -3.394493   1.030382
H  -7.214540  -2.684624   1.542950
H  -6.561238  -4.404628   1.602617
H  -5.906980  -0.789536   0.739351

