%chk=/home/boittier/MDCM/nms_sampling/acrolein_geom.xyz.dir/acrolein_1810.chk
%nproc=8
%mem=16000MB
#p B2PLYPD3/Def2QZVP 

acrolein

0 1
C  -5.013305  -1.392163   0.815491
O  -3.955188  -0.881802   0.707791
C  -5.177060  -2.762671   1.115827
C  -6.380097  -3.332365   1.447203
H  -4.327622  -3.365207   1.064699
H  -7.261517  -2.686459   1.528341
H  -6.571017  -4.513910   1.514395
H  -5.978038  -0.793376   0.884402

