%chk=/home/boittier/MDCM/nms_sampling/acrolein_geom.xyz.dir/acrolein_1545.chk
%nproc=8
%mem=16000MB
#p B2PLYPD3/Def2QZVP 

acrolein

0 1
C  -5.022592  -1.376120   0.912350
O  -3.939941  -0.877432   0.642690
C  -5.196284  -2.805317   1.159940
C  -6.369888  -3.321047   1.380890
H  -4.387308  -3.397711   1.113760
H  -7.201791  -2.685599   1.358881
H  -6.561598  -4.353528   1.654785
H  -6.003057  -0.793533   1.010610

