%chk=/home/boittier/MDCM/nms_sampling/acrolein_geom.xyz.dir/acrolein_1717.chk
%nproc=8
%mem=16000MB
#p B2PLYPD3/Def2QZVP 

acrolein

0 1
C  -5.005150  -1.380605   0.861662
O  -3.924857  -0.883357   0.680515
C  -5.210057  -2.799781   1.131764
C  -6.396609  -3.312171   1.416258
H  -4.394900  -3.424258   1.105906
H  -7.200931  -2.668570   1.542878
H  -6.635849  -4.404084   1.545400
H  -5.897134  -0.759750   0.856706
