%chk=/home/boittier/MDCM/nms_sampling/acrolein_geom.xyz.dir/acrolein_2013.chk
%nproc=8
%mem=16000MB
#p B2PLYPD3/Def2QZVP 

acrolein

0 1
C  -4.979946  -1.411583   0.908000
O  -3.937238  -0.849872   0.642363
C  -5.202718  -2.840054   1.134566
C  -6.443151  -3.305591   1.402670
H  -4.148547  -3.434455   1.292822
H  -7.249288  -2.600453   1.354884
H  -6.564415  -4.259539   1.519817
H  -5.826815  -0.764583   1.052565

