%chk=/home/boittier/MDCM/nms_sampling/acrolein_geom.xyz.dir/acrolein_1402.chk
%nproc=8
%mem=16000MB
#p B2PLYPD3/Def2QZVP 

acrolein

0 1
C  -5.001521  -1.412144   0.853201
O  -3.946473  -0.844913   0.684006
C  -5.177976  -2.843133   1.135557
C  -6.399534  -3.292165   1.423828
H  -4.327973  -3.435379   1.044798
H  -7.347160  -2.653357   1.457507
H  -6.589088  -4.319405   1.563734
H  -5.924293  -0.824799   0.903352

