%chk=/home/boittier/MDCM/nms_sampling/acrolein_geom.xyz.dir/acrolein_2244.chk
%nproc=8
%mem=16000MB
#p B2PLYPD3/Def2QZVP 

acrolein

0 1
C  -5.014781  -1.404942   0.944421
O  -3.941698  -0.877278   0.609354
C  -5.211418  -2.759196   1.234737
C  -6.376394  -3.335976   1.332077
H  -4.251999  -3.331309   0.995243
H  -7.134964  -2.645523   1.453397
H  -6.579597  -4.474881   1.550182
H  -6.000696  -0.838709   0.981373
