%chk=/home/boittier/MDCM/nms_sampling/acrolein_geom.xyz.dir/acrolein_513.chk
%nproc=8
%mem=16000MB
#p B2PLYPD3/Def2QZVP 

acrolein

0 1
C  -5.009304  -1.390512   0.913763
O  -3.938709  -0.872038   0.639950
C  -5.190066  -2.801903   1.153821
C  -6.400328  -3.314998   1.390539
H  -4.313536  -3.412678   1.180048
H  -7.223686  -2.669243   1.355800
H  -6.575857  -4.412748   1.566290
H  -5.942613  -0.774160   1.014301

