%chk=/home/boittier/MDCM/nms_sampling/acrolein_geom.xyz.dir/acrolein_1147.chk
%nproc=8
%mem=16000MB
#p B2PLYPD3/Def2QZVP 

acrolein

0 1
C  -5.020905  -1.351768   0.909339
O  -3.922944  -0.890375   0.650471
C  -5.201154  -2.800078   1.149956
C  -6.402711  -3.336515   1.386168
H  -4.300331  -3.450381   1.097817
H  -7.229508  -2.664820   1.398059
H  -6.532255  -4.355299   1.672512
H  -5.945328  -0.726281   0.940302
