%chk=/home/boittier/MDCM/nms_sampling/acrolein_geom.xyz.dir/acrolein_900.chk
%nproc=8
%mem=16000MB
#p B2PLYPD3/Def2QZVP 

acrolein

0 1
C  -5.002715  -1.374281   0.908968
O  -3.927355  -0.866710   0.642284
C  -5.190650  -2.835181   1.183210
C  -6.413967  -3.315705   1.376731
H  -4.281468  -3.445950   1.043618
H  -7.349356  -2.638985   1.468466
H  -6.554619  -4.327255   1.537586
H  -5.972993  -0.733237   0.910123
