%chk=/home/boittier/MDCM/nms_sampling/acrolein_geom.xyz.dir/acrolein_1502.chk
%nproc=8
%mem=16000MB
#p B2PLYPD3/Def2QZVP 

acrolein

0 1
C  -5.005264  -1.383440   0.915059
O  -3.934056  -0.867479   0.635699
C  -5.190634  -2.814274   1.183564
C  -6.411463  -3.320167   1.383726
H  -4.323739  -3.460813   1.059873
H  -7.341809  -2.656527   1.370227
H  -6.512708  -4.305372   1.507651
H  -5.874776  -0.798775   0.968441
