%chk=/home/boittier/MDCM/nms_sampling/acrolein_geom.xyz.dir/acrolein_139.chk
%nproc=8
%mem=16000MB
#p B2PLYPD3/Def2QZVP 

acrolein

0 1
C  -4.998257  -1.391795   0.909398
O  -3.927316  -0.859701   0.645339
C  -5.195701  -2.835620   1.161245
C  -6.418069  -3.303017   1.383754
H  -4.290962  -3.443641   1.098357
H  -7.279956  -2.652930   1.391003
H  -6.586447  -4.329262   1.622442
H  -5.944795  -0.770786   0.970544

