%chk=/home/boittier/MDCM/nms_sampling/acrolein_geom.xyz.dir/acrolein_2368.chk
%nproc=8
%mem=16000MB
#p B2PLYPD3/Def2QZVP 

acrolein

0 1
C  -4.985679  -1.415462   0.799617
O  -3.929785  -0.841097   0.724809
C  -5.172293  -2.847441   1.110242
C  -6.435051  -3.308043   1.430363
H  -4.341981  -3.399073   1.014818
H  -7.536690  -2.608286   1.694207
H  -6.556005  -4.246708   1.664374
H  -5.870273  -0.772308   0.803020

