%chk=/home/boittier/MDCM/nms_sampling/acrolein_geom.xyz.dir/acrolein_2512.chk
%nproc=8
%mem=16000MB
#p B2PLYPD3/Def2QZVP 

acrolein

0 1
C  -4.999073  -1.407698   0.955860
O  -3.952236  -0.850267   0.597393
C  -5.200012  -2.837859   1.179790
C  -6.391808  -3.318584   1.374437
H  -4.286563  -3.412984   1.359583
H  -7.361989  -2.618782   1.281537
H  -6.451502  -4.164876   1.364126
H  -5.859031  -0.759236   1.149673

