%chk=/home/boittier/MDCM/nms_sampling/acrolein_geom.xyz.dir/acrolein_167.chk
%nproc=8
%mem=16000MB
#p B2PLYPD3/Def2QZVP 

acrolein

0 1
C  -5.005260  -1.385327   0.915419
O  -3.938495  -0.874597   0.639626
C  -5.194536  -2.801434   1.173420
C  -6.399526  -3.314142   1.378434
H  -4.323829  -3.436378   1.093908
H  -7.195804  -2.687264   1.442604
H  -6.584578  -4.396151   1.552606
H  -5.960647  -0.783394   0.929046
