%chk=/home/boittier/MDCM/nms_sampling/acrolein_geom.xyz.dir/acrolein_607.chk
%nproc=8
%mem=16000MB
#p B2PLYPD3/Def2QZVP 

acrolein

0 1
C  -5.011093  -1.377519   0.887074
O  -3.930212  -0.874416   0.666405
C  -5.196757  -2.806552   1.138791
C  -6.397941  -3.323921   1.413619
H  -4.312800  -3.411950   1.081733
H  -7.272285  -2.666654   1.442154
H  -6.544522  -4.373787   1.548120
H  -5.993388  -0.772458   0.856440
