%chk=/home/boittier/MDCM/nms_sampling/acrolein_geom.xyz.dir/acrolein_1057.chk
%nproc=8
%mem=16000MB
#p B2PLYPD3/Def2QZVP 

acrolein

0 1
C  -5.008039  -1.378330   0.884873
O  -3.924708  -0.873658   0.668760
C  -5.198823  -2.805924   1.115242
C  -6.408302  -3.313531   1.403033
H  -4.272345  -3.460196   1.209777
H  -7.274450  -2.694771   1.462080
H  -6.607860  -4.416934   1.686266
H  -5.954901  -0.796888   0.950420

