%chk=/home/boittier/MDCM/nms_sampling/acrolein_geom.xyz.dir/acrolein_834.chk
%nproc=8
%mem=16000MB
#p B2PLYPD3/Def2QZVP 

acrolein

0 1
C  -5.000408  -1.383992   0.898767
O  -3.934215  -0.863636   0.646071
C  -5.187022  -2.835336   1.167650
C  -6.418255  -3.300303   1.392877
H  -4.307912  -3.469370   1.118730
H  -7.277779  -2.635731   1.418514
H  -6.599292  -4.347172   1.495702
H  -5.877197  -0.804301   0.974788
