%chk=/home/boittier/MDCM/nms_sampling/acrolein_geom.xyz.dir/acrolein_1081.chk
%nproc=8
%mem=16000MB
#p B2PLYPD3/Def2QZVP 

acrolein

0 1
C  -4.994138  -1.412455   0.880914
O  -3.931407  -0.848953   0.674053
C  -5.196919  -2.829198   1.132500
C  -6.416669  -3.300314   1.402280
H  -4.291637  -3.479364   1.046759
H  -7.328202  -2.680751   1.444927
H  -6.549972  -4.299313   1.716144
H  -5.933431  -0.779480   0.885271

