%chk=/home/boittier/MDCM/nms_sampling/acrolein_geom.xyz.dir/acrolein_2544.chk
%nproc=8
%mem=16000MB
#p B2PLYPD3/Def2QZVP 

acrolein

0 1
C  -5.014154  -1.345024   0.811390
O  -3.921012  -0.908445   0.725731
C  -5.204988  -2.790868   1.085010
C  -6.404591  -3.315305   1.474914
H  -4.375488  -3.448542   1.013096
H  -7.066219  -2.681079   1.506080
H  -6.684435  -4.511665   1.544360
H  -5.904609  -0.687961   0.742014

