%chk=/home/boittier/MDCM/nms_sampling/acrolein_geom.xyz.dir/acrolein_1644.chk
%nproc=8
%mem=16000MB
#p B2PLYPD3/Def2QZVP 

acrolein

0 1
C  -5.013073  -1.365573   0.922862
O  -3.931778  -0.884778   0.630822
C  -5.194300  -2.805187   1.188737
C  -6.380854  -3.320579   1.370095
H  -4.416744  -3.439915   1.073679
H  -7.266995  -2.677376   1.416620
H  -6.603960  -4.394033   1.537143
H  -6.009620  -0.727709   0.960457

