%chk=/home/boittier/MDCM/nms_sampling/acrolein_geom.xyz.dir/acrolein_145.chk
%nproc=8
%mem=16000MB
#p B2PLYPD3/Def2QZVP 

acrolein

0 1
C  -5.010634  -1.388102   0.912983
O  -3.934008  -0.872722   0.639855
C  -5.195248  -2.798921   1.156956
C  -6.395825  -3.322298   1.389168
H  -4.305716  -3.424706   1.176852
H  -7.237618  -2.652002   1.380133
H  -6.584913  -4.395164   1.548051
H  -5.979909  -0.765538   1.000419

