%chk=/home/boittier/MDCM/nms_sampling/acrolein_geom.xyz.dir/acrolein_1870.chk
%nproc=8
%mem=16000MB
#p B2PLYPD3/Def2QZVP 

acrolein

0 1
C  -4.983083  -1.422645   0.801846
O  -3.947361  -0.828491   0.723799
C  -5.179094  -2.859032   1.111636
C  -6.439131  -3.293553   1.440313
H  -4.133732  -3.463258   0.998496
H  -7.299646  -2.610139   1.669205
H  -6.563005  -4.242670   1.595499
H  -5.927539  -0.873710   0.771500
