%chk=/home/boittier/MDCM/nms_sampling/acrolein_geom.xyz.dir/acrolein_2298.chk
%nproc=8
%mem=16000MB
#p B2PLYPD3/Def2QZVP 

acrolein

0 1
C  -5.018013  -1.351093   0.956783
O  -3.922607  -0.901041   0.610877
C  -5.194427  -2.763725   1.150545
C  -6.392884  -3.351701   1.362530
H  -4.438295  -3.407794   1.365667
H  -7.336192  -2.650476   1.339559
H  -6.536766  -4.426444   1.613601
H  -5.931510  -0.796065   1.101239
