%chk=/home/boittier/MDCM/nms_sampling/acrolein_geom.xyz.dir/acrolein_2636.chk
%nproc=8
%mem=16000MB
#p B2PLYPD3/Def2QZVP 

acrolein

0 1
C  -5.007410  -1.394642   0.826983
O  -3.935026  -0.850592   0.698744
C  -5.201702  -2.849032   1.100000
C  -6.406054  -3.313505   1.436834
H  -4.264366  -3.440226   1.160288
H  -7.411068  -2.604276   1.376535
H  -6.445974  -4.197369   1.691488
H  -5.828584  -0.791449   1.076365

