%chk=/home/boittier/MDCM/nms_sampling/acrolein_geom.xyz.dir/acrolein_1930.chk
%nproc=8
%mem=16000MB
#p B2PLYPD3/Def2QZVP 

acrolein

0 1
C  -5.010273  -1.386924   0.964046
O  -3.945075  -0.891589   0.589184
C  -5.214341  -2.755012   1.232553
C  -6.379439  -3.343151   1.325857
H  -4.275891  -3.323280   1.204290
H  -7.052666  -2.691993   1.503113
H  -6.596721  -4.415334   1.401507
H  -5.963084  -0.807123   1.033595

