%chk=/home/boittier/MDCM/nms_sampling/acrolein_geom.xyz.dir/acrolein_2034.chk
%nproc=8
%mem=16000MB
#p B2PLYPD3/Def2QZVP 

acrolein

0 1
C  -5.016004  -1.339053   0.957559
O  -3.908179  -0.901332   0.599748
C  -5.205042  -2.781692   1.164747
C  -6.416177  -3.353270   1.372601
H  -4.261082  -3.393334   1.386278
H  -7.207689  -2.692476   1.230068
H  -6.530016  -4.426692   1.481055
H  -6.098835  -0.683750   1.200517
