%chk=/home/boittier/MDCM/nms_sampling/acrolein_geom.xyz.dir/acrolein_776.chk
%nproc=8
%mem=16000MB
#p B2PLYPD3/Def2QZVP 

acrolein

0 1
C  -5.002212  -1.376083   0.901480
O  -3.933052  -0.868713   0.646735
C  -5.195418  -2.834865   1.152738
C  -6.412356  -3.307537   1.393756
H  -4.314796  -3.443585   1.163235
H  -7.259982  -2.657752   1.367969
H  -6.535627  -4.316916   1.574351
H  -5.918085  -0.766032   1.024276

