%chk=/home/boittier/MDCM/nms_sampling/acrolein_geom.xyz.dir/acrolein_2393.chk
%nproc=8
%mem=16000MB
#p B2PLYPD3/Def2QZVP 

acrolein

0 1
C  -5.014507  -1.396214   0.925487
O  -3.943494  -0.841671   0.605933
C  -5.186553  -2.881330   1.237562
C  -6.393421  -3.288014   1.351960
H  -4.295213  -3.484824   1.113857
H  -7.326553  -2.651333   1.418124
H  -6.522172  -4.180508   1.334557
H  -5.905305  -0.743323   1.107693
