%chk=/home/boittier/MDCM/nms_sampling/acrolein_geom.xyz.dir/acrolein_2322.chk
%nproc=8
%mem=16000MB
#p B2PLYPD3/Def2QZVP 

acrolein

0 1
C  -5.001422  -1.376809   0.924070
O  -3.920730  -0.855837   0.622535
C  -5.193968  -2.866280   1.173975
C  -6.441953  -3.302946   1.344590
H  -4.289187  -3.525343   1.263637
H  -7.312414  -2.613405   1.400728
H  -6.461483  -4.190714   1.707795
H  -5.846817  -0.727152   1.188302

