%chk=/home/boittier/MDCM/nms_sampling/acrolein_geom.xyz.dir/acrolein_1289.chk
%nproc=8
%mem=16000MB
#p B2PLYPD3/Def2QZVP 

acrolein

0 1
C  -5.006106  -1.400129   0.868679
O  -3.940274  -0.846106   0.679989
C  -5.174066  -2.846934   1.141775
C  -6.419452  -3.303088   1.412293
H  -4.236254  -3.462414   0.997384
H  -7.323776  -2.660333   1.499659
H  -6.520505  -4.290027   1.603064
H  -5.966983  -0.770538   0.817644
