%chk=/home/boittier/MDCM/nms_sampling/acrolein_geom.xyz.dir/acrolein_552.chk
%nproc=8
%mem=16000MB
#p B2PLYPD3/Def2QZVP 

acrolein

0 1
C  -5.005518  -1.378656   0.872972
O  -3.929253  -0.869541   0.678420
C  -5.201012  -2.823063   1.125292
C  -6.406806  -3.314524   1.423418
H  -4.285938  -3.460043   1.079547
H  -7.282979  -2.660161   1.461782
H  -6.559812  -4.324312   1.571294
H  -5.926560  -0.763962   0.837128

