%chk=/home/boittier/MDCM/nms_sampling/acrolein_geom.xyz.dir/acrolein_1664.chk
%nproc=8
%mem=16000MB
#p B2PLYPD3/Def2QZVP 

acrolein

0 1
C  -5.018407  -1.348214   0.865707
O  -3.922847  -0.889428   0.686688
C  -5.193816  -2.806479   1.121514
C  -6.392731  -3.325283   1.410517
H  -4.340398  -3.405420   1.019133
H  -7.321184  -2.714904   1.446214
H  -6.582539  -4.428967   1.766046
H  -6.005756  -0.767216   0.877934
