%chk=/home/boittier/MDCM/nms_sampling/acrolein_geom.xyz.dir/acrolein_545.chk
%nproc=8
%mem=16000MB
#p B2PLYPD3/Def2QZVP 

acrolein

0 1
C  -5.011170  -1.380383   0.902739
O  -3.938452  -0.873835   0.651243
C  -5.197304  -2.813191   1.158095
C  -6.395719  -3.311430   1.390351
H  -4.301261  -3.445173   1.100295
H  -7.197191  -2.653790   1.461418
H  -6.564782  -4.392465   1.561990
H  -5.940766  -0.770938   0.901298

