%chk=/home/boittier/MDCM/nms_sampling/acrolein_geom.xyz.dir/acrolein_1485.chk
%nproc=8
%mem=16000MB
#p B2PLYPD3/Def2QZVP 

acrolein

0 1
C  -5.003068  -1.370143   0.875302
O  -3.929313  -0.870227   0.679803
C  -5.202889  -2.847251   1.108599
C  -6.409405  -3.304811   1.429373
H  -4.314231  -3.438210   1.130979
H  -7.258391  -2.625474   1.420941
H  -6.537872  -4.307632   1.610524
H  -5.909309  -0.739378   0.862906

