%chk=/home/boittier/MDCM/nms_sampling/acrolein_geom.xyz.dir/acrolein_141.chk
%nproc=8
%mem=16000MB
#p B2PLYPD3/Def2QZVP 

acrolein

0 1
C  -4.995502  -1.393210   0.871426
O  -3.934675  -0.858300   0.678551
C  -5.193538  -2.826862   1.125624
C  -6.409767  -3.308410   1.413166
H  -4.309780  -3.464500   1.105518
H  -7.340578  -2.665586   1.514243
H  -6.546256  -4.311533   1.608709
H  -5.953755  -0.802989   0.849942
