%chk=/home/boittier/MDCM/nms_sampling/acrolein_geom.xyz.dir/acrolein_1153.chk
%nproc=8
%mem=16000MB
#p B2PLYPD3/Def2QZVP 

acrolein

0 1
C  -5.018705  -1.359551   0.947327
O  -3.941428  -0.884392   0.624294
C  -5.192218  -2.807969   1.156196
C  -6.386748  -3.321911   1.375295
H  -4.336473  -3.421516   1.179980
H  -7.155841  -2.708277   1.300720
H  -6.543071  -4.358835   1.645914
H  -5.990106  -0.784803   0.996862
