%chk=/home/boittier/MDCM/nms_sampling/acrolein_geom.xyz.dir/acrolein_1100.chk
%nproc=8
%mem=16000MB
#p B2PLYPD3/Def2QZVP 

acrolein

0 1
C  -4.993142  -1.389816   0.860520
O  -3.927978  -0.857966   0.676975
C  -5.205388  -2.847001   1.136324
C  -6.425342  -3.301183   1.422075
H  -4.226638  -3.445199   1.105446
H  -7.289578  -2.619111   1.473592
H  -6.560607  -4.301867   1.507413
H  -5.878297  -0.775799   0.912192

