%chk=/home/boittier/MDCM/nms_sampling/acrolein_geom.xyz.dir/acrolein_882.chk
%nproc=8
%mem=16000MB
#p B2PLYPD3/Def2QZVP 

acrolein

0 1
C  -5.004541  -1.385845   0.922374
O  -3.931792  -0.861267   0.635526
C  -5.196592  -2.836233   1.170166
C  -6.410024  -3.307039   1.387920
H  -4.279097  -3.470994   1.110589
H  -7.301321  -2.654079   1.387654
H  -6.563875  -4.290547   1.500987
H  -5.898331  -0.774290   0.928677

