%chk=/home/boittier/MDCM/nms_sampling/acrolein_geom.xyz.dir/acrolein_101.chk
%nproc=8
%mem=16000MB
#p B2PLYPD3/Def2QZVP 

acrolein

0 1
C  -5.007340  -1.383321   0.907675
O  -3.931832  -0.871338   0.649258
C  -5.192892  -2.810747   1.154929
C  -6.400231  -3.317791   1.399164
H  -4.340445  -3.431687   1.097360
H  -7.308924  -2.655964   1.405354
H  -6.554116  -4.376857   1.533766
H  -5.959643  -0.760020   0.897765
