%chk=/home/boittier/MDCM/nms_sampling/acrolein_geom.xyz.dir/acrolein_1657.chk
%nproc=8
%mem=16000MB
#p B2PLYPD3/Def2QZVP 

acrolein

0 1
C  -4.993846  -1.391743   0.866022
O  -3.926750  -0.859213   0.689964
C  -5.199761  -2.840693   1.109626
C  -6.422393  -3.301755   1.437981
H  -4.366889  -3.444217   1.040251
H  -7.271887  -2.625557   1.437303
H  -6.544967  -4.263912   1.607645
H  -5.875101  -0.814476   0.784802
