%chk=/home/boittier/MDCM/nms_sampling/acrolein_geom.xyz.dir/acrolein_1171.chk
%nproc=8
%mem=16000MB
#p B2PLYPD3/Def2QZVP 

acrolein

0 1
C  -5.007464  -1.363099   0.937086
O  -3.933132  -0.876126   0.623348
C  -5.196658  -2.822248   1.172880
C  -6.409256  -3.323307   1.362621
H  -4.282798  -3.426836   1.153266
H  -7.258469  -2.666702   1.313699
H  -6.499808  -4.311161   1.671946
H  -5.945574  -0.783676   1.071878

