%chk=/home/boittier/MDCM/nms_sampling/acrolein_geom.xyz.dir/acrolein_106.chk
%nproc=8
%mem=16000MB
#p B2PLYPD3/Def2QZVP 

acrolein

0 1
C  -5.002539  -1.388057   0.868485
O  -3.942372  -0.863102   0.677063
C  -5.186188  -2.827017   1.138802
C  -6.403723  -3.308320   1.418756
H  -4.322370  -3.433800   1.029901
H  -7.281703  -2.671773   1.433915
H  -6.541343  -4.325989   1.580846
H  -5.944553  -0.788913   0.878720
