%chk=/home/boittier/MDCM/nms_sampling/acrolein_geom.xyz.dir/acrolein_1060.chk
%nproc=8
%mem=16000MB
#p B2PLYPD3/Def2QZVP 

acrolein

0 1
C  -5.025821  -1.353240   0.874290
O  -3.947887  -0.887810   0.677828
C  -5.181259  -2.810105   1.126309
C  -6.383260  -3.320627   1.409189
H  -4.318054  -3.407947   1.050580
H  -7.207095  -2.670806   1.405154
H  -6.553715  -4.423018   1.729594
H  -5.925630  -0.781734   0.918930

