%chk=/home/boittier/MDCM/nms_sampling/acrolein_geom.xyz.dir/acrolein_1064.chk
%nproc=8
%mem=16000MB
#p B2PLYPD3/Def2QZVP 

acrolein

0 1
C  -5.009030  -1.400080   0.853298
O  -3.942537  -0.849644   0.684677
C  -5.190580  -2.843799   1.117866
C  -6.406434  -3.306306   1.428497
H  -4.206616  -3.457315   1.124152
H  -7.319833  -2.620208   1.416805
H  -6.531802  -4.272213   1.603275
H  -5.874594  -0.785442   0.961965
