%chk=/home/boittier/MDCM/nms_sampling/acrolein_geom.xyz.dir/acrolein_1869.chk
%nproc=8
%mem=16000MB
#p B2PLYPD3/Def2QZVP 

acrolein

0 1
C  -4.970598  -1.417004   0.895062
O  -3.920954  -0.850861   0.629364
C  -5.216163  -2.818116   1.204885
C  -6.437339  -3.301500   1.383335
H  -4.250419  -3.492106   1.145799
H  -7.304757  -2.605810   1.413095
H  -6.616344  -4.339578   1.322262
H  -5.910403  -0.844345   1.097039

