%chk=/home/boittier/MDCM/nms_sampling/acrolein_geom.xyz.dir/acrolein_2497.chk
%nproc=8
%mem=16000MB
#p B2PLYPD3/Def2QZVP 

acrolein

0 1
C  -5.025249  -1.340911   0.928225
O  -3.919282  -0.883173   0.629159
C  -5.201277  -2.836647   1.162339
C  -6.397623  -3.308693   1.392647
H  -4.377466  -3.514861   1.106254
H  -7.214880  -2.710720   1.126422
H  -6.524603  -4.310617   1.644065
H  -5.955488  -0.781102   1.128264
