%chk=/home/boittier/MDCM/nms_sampling/acrolein_geom.xyz.dir/acrolein_1296.chk
%nproc=8
%mem=16000MB
#p B2PLYPD3/Def2QZVP 

acrolein

0 1
C  -5.007841  -1.366504   0.863436
O  -3.927706  -0.883505   0.677608
C  -5.198918  -2.815416   1.132534
C  -6.404634  -3.305512   1.416629
H  -4.332652  -3.417752   1.109172
H  -7.235244  -2.690069   1.487349
H  -6.612228  -4.449415   1.561248
H  -5.911961  -0.760407   0.905634
