%chk=/home/boittier/MDCM/nms_sampling/acrolein_geom.xyz.dir/acrolein_2465.chk
%nproc=8
%mem=16000MB
#p B2PLYPD3/Def2QZVP 

acrolein

0 1
C  -4.991444  -1.425975   0.953568
O  -3.957583  -0.830508   0.609028
C  -5.175160  -2.855528   1.191559
C  -6.401304  -3.292117   1.382984
H  -4.211535  -3.440099   1.145126
H  -7.422729  -2.638994   1.294932
H  -6.596773  -4.268217   1.372267
H  -5.927922  -0.830630   0.968844
