%chk=/home/boittier/MDCM/nms_sampling/acrolein_geom.xyz.dir/acrolein_1973.chk
%nproc=8
%mem=16000MB
#p B2PLYPD3/Def2QZVP 

acrolein

0 1
C  -4.995232  -1.379732   0.950449
O  -3.919247  -0.848589   0.598919
C  -5.195269  -2.868889   1.207785
C  -6.448625  -3.309017   1.367701
H  -4.229187  -3.515007   1.245511
H  -7.361381  -2.582659   1.392266
H  -6.506392  -4.136709   1.272497
H  -5.822211  -0.823914   1.038623

