%chk=/home/boittier/MDCM/nms_sampling/acrolein_geom.xyz.dir/acrolein_261.chk
%nproc=8
%mem=16000MB
#p B2PLYPD3/Def2QZVP 

acrolein

0 1
C  -5.013732  -1.370577   0.864716
O  -3.938106  -0.875153   0.679867
C  -5.192288  -2.817454   1.126698
C  -6.393111  -3.314041   1.408573
H  -4.316888  -3.450562   1.103744
H  -7.252133  -2.662034   1.483132
H  -6.555024  -4.377333   1.668645
H  -5.947837  -0.786198   0.922983

