%chk=/home/boittier/MDCM/nms_sampling/acrolein_geom.xyz.dir/acrolein_1739.chk
%nproc=8
%mem=16000MB
#p B2PLYPD3/Def2QZVP 

acrolein

0 1
C  -4.990225  -1.415364   0.841702
O  -3.946360  -0.850343   0.697503
C  -5.197019  -2.839470   1.109055
C  -6.410069  -3.288884   1.425818
H  -4.303329  -3.446995   1.086026
H  -7.230382  -2.625153   1.478167
H  -6.568198  -4.321032   1.697795
H  -5.867476  -0.790173   0.917665
