%chk=/home/boittier/MDCM/nms_sampling/acrolein_geom.xyz.dir/acrolein_1208.chk
%nproc=8
%mem=16000MB
#p B2PLYPD3/Def2QZVP 

acrolein

0 1
C  -5.020224  -1.368174   0.880487
O  -3.939506  -0.882057   0.677876
C  -5.188344  -2.795479   1.117057
C  -6.389583  -3.333145   1.427062
H  -4.298959  -3.428094   1.058517
H  -7.182616  -2.650918   1.371277
H  -6.565432  -4.381019   1.644943
H  -6.003905  -0.769513   0.856043
