%chk=/home/boittier/MDCM/nms_sampling/acrolein_geom.xyz.dir/acrolein_2056.chk
%nproc=8
%mem=16000MB
#p B2PLYPD3/Def2QZVP 

acrolein

0 1
C  -4.997197  -1.377906   0.868781
O  -3.926082  -0.847152   0.679917
C  -5.185823  -2.870070   1.131162
C  -6.442188  -3.297942   1.429080
H  -4.266486  -3.544665   0.962185
H  -7.403953  -2.674605   1.259659
H  -6.488531  -4.153514   1.687201
H  -5.826627  -0.847059   0.947895
