%chk=/home/boittier/MDCM/nms_sampling/acrolein_geom.xyz.dir/acrolein_1327.chk
%nproc=8
%mem=16000MB
#p B2PLYPD3/Def2QZVP 

acrolein

0 1
C  -4.980597  -1.409456   0.848277
O  -3.929013  -0.853131   0.691664
C  -5.199500  -2.839234   1.130830
C  -6.427712  -3.288731   1.414837
H  -4.324850  -3.435355   1.039928
H  -7.351417  -2.638337   1.571326
H  -6.584512  -4.365029   1.619620
H  -5.875492  -0.780793   0.835744
