%chk=/home/boittier/MDCM/nms_sampling/acrolein_geom.xyz.dir/acrolein_1697.chk
%nproc=8
%mem=16000MB
#p B2PLYPD3/Def2QZVP 

acrolein

0 1
C  -4.993809  -1.381360   0.931711
O  -3.934034  -0.859297   0.623241
C  -5.194944  -2.851670   1.187069
C  -6.418678  -3.294873   1.362379
H  -4.306272  -3.495193   1.117468
H  -7.326127  -2.612013   1.358950
H  -6.566395  -4.301355   1.593846
H  -5.852319  -0.817739   1.041057

