%chk=/home/boittier/MDCM/nms_sampling/acrolein_geom.xyz.dir/acrolein_999.chk
%nproc=8
%mem=16000MB
#p B2PLYPD3/Def2QZVP 

acrolein

0 1
C  -5.000848  -1.410551   0.904543
O  -3.943581  -0.846854   0.658418
C  -5.186239  -2.840411   1.137232
C  -6.424444  -3.298186   1.395693
H  -4.183494  -3.472576   1.091207
H  -7.242017  -2.624057   1.402296
H  -6.555448  -4.310676   1.688069
H  -5.869501  -0.782592   0.898565
