%chk=/home/boittier/MDCM/nms_sampling/acrolein_geom.xyz.dir/acrolein_1627.chk
%nproc=8
%mem=16000MB
#p B2PLYPD3/Def2QZVP 

acrolein

0 1
C  -4.990242  -1.397287   0.922712
O  -3.933367  -0.857823   0.631918
C  -5.190563  -2.840348   1.177720
C  -6.428951  -3.287050   1.371987
H  -4.324231  -3.453039   1.093273
H  -7.298438  -2.669117   1.339645
H  -6.590449  -4.353104   1.619538
H  -5.823279  -0.818523   1.029214
