%chk=/home/boittier/MDCM/nms_sampling/acrolein_geom.xyz.dir/acrolein_49.chk
%nproc=8
%mem=16000MB
#p B2PLYPD3/Def2QZVP 

acrolein

0 1
C  -5.002562  -1.388008   0.867940
O  -3.939557  -0.861174   0.672110
C  -5.182252  -2.830768   1.144217
C  -6.407497  -3.309692   1.411459
H  -4.294139  -3.442409   1.088089
H  -7.336546  -2.657213   1.479436
H  -6.571576  -4.330245   1.539646
H  -5.938868  -0.768473   0.914006

