%chk=/home/boittier/MDCM/nms_sampling/acrolein_geom.xyz.dir/acrolein_2158.chk
%nproc=8
%mem=16000MB
#p B2PLYPD3/Def2QZVP 

acrolein

0 1
C  -5.038711  -1.343147   0.940155
O  -3.950297  -0.889946   0.600137
C  -5.159467  -2.808104   1.206084
C  -6.370619  -3.320582   1.322510
H  -4.412180  -3.419471   1.296079
H  -7.236331  -2.730644   1.400708
H  -6.564482  -4.434922   1.628473
H  -6.003340  -0.795545   1.272448

