%chk=/home/boittier/MDCM/nms_sampling/acrolein_geom.xyz.dir/acrolein_1319.chk
%nproc=8
%mem=16000MB
#p B2PLYPD3/Def2QZVP 

acrolein

0 1
C  -4.992235  -1.385762   0.914124
O  -3.923260  -0.860784   0.633960
C  -5.199060  -2.838406   1.179785
C  -6.425584  -3.294114   1.391194
H  -4.287017  -3.467958   1.129264
H  -7.244776  -2.670349   1.411651
H  -6.589431  -4.375522   1.400118
H  -5.991208  -0.804156   0.951475
