%chk=/home/boittier/MDCM/nms_sampling/acrolein_geom.xyz.dir/acrolein_692.chk
%nproc=8
%mem=16000MB
#p B2PLYPD3/Def2QZVP 

acrolein

0 1
C  -5.005032  -1.380685   0.879956
O  -3.933391  -0.865208   0.672090
C  -5.187204  -2.834249   1.118202
C  -6.412005  -3.309257   1.411153
H  -4.320484  -3.460230   1.162361
H  -7.311138  -2.632177   1.438031
H  -6.561045  -4.317041   1.656901
H  -5.899633  -0.765348   0.931144
