%chk=/home/boittier/MDCM/nms_sampling/acrolein_geom.xyz.dir/acrolein_2109.chk
%nproc=8
%mem=16000MB
#p B2PLYPD3/Def2QZVP 

acrolein

0 1
C  -4.994220  -1.387900   0.963708
O  -3.933215  -0.866031   0.609808
C  -5.209324  -2.828058   1.149819
C  -6.421255  -3.307498   1.359535
H  -4.151395  -3.480943   1.339907
H  -7.304140  -2.581419   1.321164
H  -6.619613  -4.370251   1.659230
H  -5.788808  -0.767545   1.083114

