%chk=/home/boittier/MDCM/nms_sampling/acrolein_geom.xyz.dir/acrolein_974.chk
%nproc=8
%mem=16000MB
#p B2PLYPD3/Def2QZVP 

acrolein

0 1
C  -5.009908  -1.400700   0.885750
O  -3.940689  -0.856817   0.676474
C  -5.193996  -2.830588   1.109362
C  -6.409423  -3.304655   1.432172
H  -4.198876  -3.441947   1.085389
H  -7.213404  -2.623974   1.345718
H  -6.569468  -4.344685   1.637687
H  -5.884660  -0.774475   0.851880

