%chk=/home/boittier/MDCM/nms_sampling/acrolein_geom.xyz.dir/acrolein_1556.chk
%nproc=8
%mem=16000MB
#p B2PLYPD3/Def2QZVP 

acrolein

0 1
C  -5.001750  -1.403932   0.926494
O  -3.948003  -0.849704   0.623088
C  -5.176284  -2.844110   1.196802
C  -6.409255  -3.283008   1.376251
H  -4.256382  -3.491591   1.080575
H  -7.299487  -2.669157   1.336715
H  -6.609723  -4.396037   1.465638
H  -5.903939  -0.793616   1.016443

