%chk=/home/boittier/MDCM/nms_sampling/acrolein_geom.xyz.dir/acrolein_1755.chk
%nproc=8
%mem=16000MB
#p B2PLYPD3/Def2QZVP 

acrolein

0 1
C  -4.988618  -1.389090   0.850682
O  -3.929723  -0.866184   0.695477
C  -5.199719  -2.826858   1.088972
C  -6.433113  -3.302737   1.439044
H  -4.249089  -3.436067   1.163386
H  -7.306846  -2.658868   1.422012
H  -6.573049  -4.369550   1.677167
H  -5.831688  -0.778771   0.920793

