%chk=/home/boittier/MDCM/nms_sampling/acrolein_geom.xyz.dir/acrolein_2343.chk
%nproc=8
%mem=16000MB
#p B2PLYPD3/Def2QZVP 

acrolein

0 1
C  -5.004260  -1.367247   0.885829
O  -3.934962  -0.868209   0.684580
C  -5.177478  -2.838312   1.117445
C  -6.415584  -3.327133   1.415443
H  -4.247497  -3.405789   1.012209
H  -7.357840  -2.650423   1.560195
H  -6.550913  -4.280362   1.661958
H  -5.995616  -0.702735   0.661249
