%chk=/home/boittier/MDCM/nms_sampling/acrolein_geom.xyz.dir/acrolein_867.chk
%nproc=8
%mem=16000MB
#p B2PLYPD3/Def2QZVP 

acrolein

0 1
C  -5.007500  -1.381993   0.901905
O  -3.935910  -0.872707   0.652107
C  -5.198431  -2.807553   1.145453
C  -6.398343  -3.318584   1.400852
H  -4.267057  -3.420936   1.117140
H  -7.226228  -2.655261   1.337080
H  -6.580646  -4.391890   1.612912
H  -5.974906  -0.787839   0.982694
