%chk=/home/boittier/MDCM/nms_sampling/acrolein_geom.xyz.dir/acrolein_780.chk
%nproc=8
%mem=16000MB
#p B2PLYPD3/Def2QZVP 

acrolein

0 1
C  -5.010055  -1.365941   0.885919
O  -3.929256  -0.880048   0.671274
C  -5.202867  -2.815659   1.134040
C  -6.396169  -3.316357   1.408788
H  -4.340051  -3.449577   1.065782
H  -7.221718  -2.669509   1.483957
H  -6.573198  -4.356075   1.609836
H  -5.958743  -0.769441   0.820304

