%chk=/home/boittier/MDCM/nms_sampling/acrolein_geom.xyz.dir/acrolein_1897.chk
%nproc=8
%mem=16000MB
#p B2PLYPD3/Def2QZVP 

acrolein

0 1
C  -5.002000  -1.369652   0.892162
O  -3.913454  -0.874127   0.679601
C  -5.184610  -2.813629   1.123887
C  -6.425564  -3.318834   1.407594
H  -4.290635  -3.394682   1.011920
H  -7.377651  -2.691674   1.568057
H  -6.677589  -4.419037   1.669340
H  -5.980022  -0.815390   0.666023

