%chk=/home/boittier/MDCM/nms_sampling/acrolein_geom.xyz.dir/acrolein_1497.chk
%nproc=8
%mem=16000MB
#p B2PLYPD3/Def2QZVP 

acrolein

0 1
C  -5.002257  -1.366251   0.941195
O  -3.931206  -0.882575   0.621928
C  -5.204144  -2.814147   1.166154
C  -6.395785  -3.319772   1.382483
H  -4.393352  -3.393068   1.191717
H  -7.286372  -2.636962   1.313174
H  -6.556981  -4.352658   1.518424
H  -5.905993  -0.794547   1.003460
