%chk=/home/boittier/MDCM/nms_sampling/acrolein_geom.xyz.dir/acrolein_1411.chk
%nproc=8
%mem=16000MB
#p B2PLYPD3/Def2QZVP 

acrolein

0 1
C  -5.024339  -1.358343   0.867935
O  -3.947486  -0.882653   0.685971
C  -5.188166  -2.817957   1.094756
C  -6.376502  -3.317758   1.435233
H  -4.336562  -3.451555   1.155586
H  -7.209591  -2.638784   1.391592
H  -6.540067  -4.382702   1.662571
H  -5.941586  -0.765102   0.899032

