%chk=/home/boittier/MDCM/nms_sampling/acrolein_geom.xyz.dir/acrolein_210.chk
%nproc=8
%mem=16000MB
#p B2PLYPD3/Def2QZVP 

acrolein

0 1
C  -4.996006  -1.395745   0.919199
O  -3.927507  -0.860656   0.635401
C  -5.194151  -2.827401   1.167344
C  -6.419148  -3.303968   1.376736
H  -4.322236  -3.439304   1.169395
H  -7.275822  -2.657567   1.444056
H  -6.587065  -4.342716   1.543112
H  -5.945824  -0.778293   0.967933
