%chk=/home/boittier/MDCM/nms_sampling/acrolein_geom.xyz.dir/acrolein_733.chk
%nproc=8
%mem=16000MB
#p B2PLYPD3/Def2QZVP 

acrolein

0 1
C  -5.012350  -1.367736   0.904914
O  -3.929880  -0.876766   0.640478
C  -5.190075  -2.816415   1.175560
C  -6.399216  -3.317357   1.376485
H  -4.335280  -3.448113   1.138818
H  -7.283934  -2.650975   1.474236
H  -6.580862  -4.389055   1.523370
H  -5.973881  -0.767669   0.982528
