%chk=/home/boittier/MDCM/nms_sampling/acrolein_geom.xyz.dir/acrolein_950.chk
%nproc=8
%mem=16000MB
#p B2PLYPD3/Def2QZVP 

acrolein

0 1
C  -5.003654  -1.367505   0.839972
O  -3.918899  -0.887613   0.698003
C  -5.213054  -2.799138   1.117322
C  -6.408224  -3.323354   1.420032
H  -4.289836  -3.396340   1.081423
H  -7.189539  -2.651833   1.581042
H  -6.609892  -4.440520   1.643552
H  -5.981377  -0.738373   0.853177

