%chk=/home/boittier/MDCM/nms_sampling/acrolein_geom.xyz.dir/acrolein_1046.chk
%nproc=8
%mem=16000MB
#p B2PLYPD3/Def2QZVP 

acrolein

0 1
C  -5.013606  -1.366578   0.935503
O  -3.920756  -0.885823   0.621824
C  -5.194974  -2.795500   1.194871
C  -6.412521  -3.330122   1.379579
H  -4.279663  -3.430363   1.074106
H  -7.234226  -2.644035   1.367248
H  -6.621822  -4.428287   1.423888
H  -5.950912  -0.729673   0.932479

