%chk=/home/boittier/MDCM/nms_sampling/acrolein_geom.xyz.dir/acrolein_508.chk
%nproc=8
%mem=16000MB
#p B2PLYPD3/Def2QZVP 

acrolein

0 1
C  -4.999519  -1.382143   0.909782
O  -3.932770  -0.867512   0.637229
C  -5.192736  -2.823922   1.174453
C  -6.406324  -3.308918   1.376035
H  -4.354529  -3.457010   1.146424
H  -7.308401  -2.644330   1.430724
H  -6.555642  -4.356504   1.543133
H  -5.953439  -0.785204   1.011735

