%chk=/home/boittier/MDCM/nms_sampling/acrolein_geom.xyz.dir/acrolein_2697.chk
%nproc=8
%mem=16000MB
#p B2PLYPD3/Def2QZVP 

acrolein

0 1
C  -5.030946  -1.346403   0.932364
O  -3.959436  -0.895251   0.599256
C  -5.174645  -2.783307   1.236410
C  -6.376104  -3.338661   1.354387
H  -4.246119  -3.427530   1.183415
H  -7.260902  -2.716688   1.433804
H  -6.531974  -4.436192   1.251021
H  -5.895881  -0.790377   1.107448

