%chk=/home/boittier/MDCM/nms_sampling/acrolein_geom.xyz.dir/acrolein_427.chk
%nproc=8
%mem=16000MB
#p B2PLYPD3/Def2QZVP 

acrolein

0 1
C  -4.994053  -1.390208   0.911150
O  -3.929575  -0.859014   0.639770
C  -5.191020  -2.832384   1.156951
C  -6.426129  -3.304633   1.379092
H  -4.261928  -3.444324   1.194909
H  -7.302555  -2.664365   1.397745
H  -6.575281  -4.340735   1.610915
H  -5.942310  -0.803261   1.041082

