%chk=/home/boittier/MDCM/nms_sampling/acrolein_geom.xyz.dir/acrolein_1500.chk
%nproc=8
%mem=16000MB
#p B2PLYPD3/Def2QZVP 

acrolein

0 1
C  -5.004685  -1.399565   0.857386
O  -3.948800  -0.847629   0.687798
C  -5.179549  -2.850021   1.114858
C  -6.398240  -3.297181   1.436768
H  -4.278987  -3.490315   1.109628
H  -7.309172  -2.633352   1.495314
H  -6.563868  -4.286771   1.517303
H  -5.956873  -0.781066   0.825012

