%chk=/home/boittier/MDCM/nms_sampling/acrolein_geom.xyz.dir/acrolein_1722.chk
%nproc=8
%mem=16000MB
#p B2PLYPD3/Def2QZVP 

acrolein

0 1
C  -5.012706  -1.391738   0.863552
O  -3.950617  -0.859033   0.682376
C  -5.180553  -2.842445   1.123423
C  -6.389468  -3.299821   1.424670
H  -4.328174  -3.431760   1.113952
H  -7.316342  -2.656635   1.528205
H  -6.569948  -4.301315   1.529292
H  -5.853616  -0.771520   0.828008

