%chk=/home/boittier/MDCM/nms_sampling/acrolein_geom.xyz.dir/acrolein_705.chk
%nproc=8
%mem=16000MB
#p B2PLYPD3/Def2QZVP 

acrolein

0 1
C  -5.014066  -1.375724   0.906026
O  -3.935601  -0.874568   0.648597
C  -5.189742  -2.807471   1.153217
C  -6.400095  -3.321762   1.398317
H  -4.283771  -3.416069   1.102418
H  -7.244122  -2.676066   1.349463
H  -6.553310  -4.386448   1.580438
H  -5.975638  -0.781938   0.962963
