%chk=/home/boittier/MDCM/nms_sampling/acrolein_geom.xyz.dir/acrolein_2448.chk
%nproc=8
%mem=16000MB
#p B2PLYPD3/Def2QZVP 

acrolein

0 1
C  -4.998863  -1.401380   0.925630
O  -3.939618  -0.869682   0.634061
C  -5.205906  -2.797719   1.181715
C  -6.382450  -3.315635   1.368942
H  -4.337452  -3.360395   1.129123
H  -7.178936  -2.687703   1.593169
H  -6.628514  -4.385668   1.453239
H  -6.042842  -0.792794   0.815617
