%chk=/home/boittier/MDCM/nms_sampling/acrolein_geom.xyz.dir/acrolein_2327.chk
%nproc=8
%mem=16000MB
#p B2PLYPD3/Def2QZVP 

acrolein

0 1
C  -4.970472  -1.415192   0.811221
O  -3.919995  -0.838870   0.727640
C  -5.193921  -2.850539   1.073425
C  -6.464718  -3.294667   1.471537
H  -4.210925  -3.516658   0.974809
H  -7.354074  -2.622647   1.309179
H  -6.529477  -4.284561   1.779171
H  -5.950474  -0.758241   0.902375

