%chk=/home/boittier/MDCM/nms_sampling/acrolein_geom.xyz.dir/acrolein_1041.chk
%nproc=8
%mem=16000MB
#p B2PLYPD3/Def2QZVP 

acrolein

0 1
C  -5.001063  -1.390148   0.917449
O  -3.951319  -0.859972   0.643735
C  -5.179740  -2.830799   1.138764
C  -6.402175  -3.298449   1.384589
H  -4.326861  -3.484411   1.224181
H  -7.305928  -2.679212   1.419990
H  -6.557484  -4.328637   1.639513
H  -5.874092  -0.826868   0.973683
