%chk=/home/boittier/MDCM/nms_sampling/acrolein_geom.xyz.dir/acrolein_432.chk
%nproc=8
%mem=16000MB
#p B2PLYPD3/Def2QZVP 

acrolein

0 1
C  -5.002525  -1.376920   0.922620
O  -3.928970  -0.880721   0.634902
C  -5.201413  -2.800661   1.160655
C  -6.405023  -3.319332   1.386412
H  -4.330522  -3.402134   1.155337
H  -7.248731  -2.678093   1.340618
H  -6.611364  -4.392893   1.566448
H  -5.913637  -0.787930   1.000151
