%chk=/home/boittier/MDCM/nms_sampling/acrolein_geom.xyz.dir/acrolein_1110.chk
%nproc=8
%mem=16000MB
#p B2PLYPD3/Def2QZVP 

acrolein

0 1
C  -5.017454  -1.386407   0.898494
O  -3.945804  -0.863236   0.644810
C  -5.183232  -2.827575   1.153698
C  -6.395543  -3.311030   1.389118
H  -4.235506  -3.426453   1.186780
H  -7.296913  -2.622638   1.335664
H  -6.575307  -4.366903   1.610997
H  -5.877240  -0.795608   1.102993

