%chk=/home/boittier/MDCM/nms_sampling/acrolein_geom.xyz.dir/acrolein_2012.chk
%nproc=8
%mem=16000MB
#p B2PLYPD3/Def2QZVP 

acrolein

0 1
C  -5.013361  -1.374340   0.807832
O  -3.946130  -0.860558   0.723658
C  -5.166443  -2.852733   1.093717
C  -6.415273  -3.292258   1.471440
H  -4.303244  -3.500809   1.058968
H  -7.294642  -2.607693   1.626631
H  -6.554467  -4.364592   1.425303
H  -5.837423  -0.822408   0.697230
