%chk=/home/boittier/MDCM/nms_sampling/acrolein_geom.xyz.dir/acrolein_977.chk
%nproc=8
%mem=16000MB
#p B2PLYPD3/Def2QZVP 

acrolein

0 1
C  -5.004693  -1.361874   0.936070
O  -3.929792  -0.890172   0.631682
C  -5.197590  -2.804664   1.152822
C  -6.406409  -3.316999   1.376292
H  -4.373757  -3.439677   1.188557
H  -7.188569  -2.640418   1.374571
H  -6.616719  -4.419470   1.633913
H  -5.901722  -0.745833   0.967398
