%chk=/home/boittier/MDCM/nms_sampling/acrolein_geom.xyz.dir/acrolein_868.chk
%nproc=8
%mem=16000MB
#p B2PLYPD3/Def2QZVP 

acrolein

0 1
C  -5.005248  -1.383069   0.875710
O  -3.930153  -0.875089   0.676726
C  -5.194355  -2.798667   1.124803
C  -6.405700  -3.321973   1.411966
H  -4.326019  -3.423535   1.109509
H  -7.258876  -2.656162   1.506377
H  -6.588474  -4.395706   1.617571
H  -5.956125  -0.790902   0.847333
