%chk=/home/boittier/MDCM/nms_sampling/acrolein_geom.xyz.dir/acrolein_2078.chk
%nproc=8
%mem=16000MB
#p B2PLYPD3/Def2QZVP 

acrolein

0 1
C  -5.018282  -1.374051   0.816340
O  -3.954977  -0.859151   0.722979
C  -5.162380  -2.843378   1.090451
C  -6.404905  -3.311572   1.436738
H  -4.225621  -3.507147   1.094733
H  -7.400198  -2.667472   1.755711
H  -6.573492  -4.247566   1.620201
H  -5.778537  -0.818000   0.689836

