%chk=/home/boittier/MDCM/nms_sampling/acrolein_geom.xyz.dir/acrolein_2699.chk
%nproc=8
%mem=16000MB
#p B2PLYPD3/Def2QZVP 

acrolein

0 1
C  -4.988834  -1.392419   0.805438
O  -3.916243  -0.855546   0.727376
C  -5.196209  -2.845758   1.110614
C  -6.428943  -3.308156   1.439251
H  -4.415425  -3.399853   0.944920
H  -7.351205  -2.593985   1.692060
H  -6.531889  -4.251932   1.631660
H  -5.952665  -0.812531   0.698076

