%chk=/home/boittier/MDCM/nms_sampling/acrolein_geom.xyz.dir/acrolein_2220.chk
%nproc=8
%mem=16000MB
#p B2PLYPD3/Def2QZVP 

acrolein

0 1
C  -4.992490  -1.374330   0.828336
O  -3.919181  -0.893656   0.721248
C  -5.225172  -2.774990   1.094433
C  -6.417764  -3.327230   1.443686
H  -4.326678  -3.355377   1.018791
H  -7.141393  -2.742502   1.727070
H  -6.590579  -4.398177   1.587619
H  -5.890462  -0.808438   0.593857
