%chk=/home/boittier/MDCM/nms_sampling/acrolein_geom.xyz.dir/acrolein_2433.chk
%nproc=8
%mem=16000MB
#p B2PLYPD3/Def2QZVP 

acrolein

0 1
C  -5.012908  -1.351472   0.868893
O  -3.912942  -0.879475   0.701550
C  -5.202204  -2.833281   1.058616
C  -6.399224  -3.317417   1.453265
H  -4.327811  -3.451066   1.129063
H  -7.259206  -2.694917   1.340058
H  -6.605516  -4.343145   1.794173
H  -6.102819  -0.713976   0.813039
