%chk=/home/boittier/MDCM/nms_sampling/acrolein_geom.xyz.dir/acrolein_2453.chk
%nproc=8
%mem=16000MB
#p B2PLYPD3/Def2QZVP 

acrolein

0 1
C  -4.987290  -1.380259   0.924831
O  -3.927574  -0.847861   0.612530
C  -5.181658  -2.882455   1.192474
C  -6.430619  -3.294075   1.346841
H  -4.350160  -3.521201   1.277363
H  -7.346238  -2.649336   1.374642
H  -6.563355  -4.154379   1.572237
H  -5.990819  -0.731032   1.236054

