%chk=/home/boittier/MDCM/nms_sampling/acrolein_geom.xyz.dir/acrolein_504.chk
%nproc=8
%mem=16000MB
#p B2PLYPD3/Def2QZVP 

acrolein

0 1
C  -5.000208  -1.390938   0.871070
O  -3.931719  -0.861549   0.679572
C  -5.199721  -2.827069   1.124820
C  -6.410312  -3.312224   1.412627
H  -4.298674  -3.460824   1.063246
H  -7.313327  -2.642766   1.430674
H  -6.537412  -4.291194   1.694036
H  -5.907170  -0.775899   0.901594
