%chk=/home/boittier/MDCM/nms_sampling/acrolein_geom.xyz.dir/acrolein_1903.chk
%nproc=8
%mem=16000MB
#p B2PLYPD3/Def2QZVP 

acrolein

0 1
C  -5.015275  -1.377179   0.835362
O  -3.943477  -0.889420   0.700685
C  -5.177691  -2.769416   1.115639
C  -6.383713  -3.314154   1.449517
H  -4.432438  -3.429775   1.074320
H  -7.124425  -2.667585   1.567503
H  -6.627682  -4.598701   1.434375
H  -6.048399  -0.817456   0.768015
