%chk=/home/boittier/MDCM/nms_sampling/acrolein_geom.xyz.dir/acrolein_1047.chk
%nproc=8
%mem=16000MB
#p B2PLYPD3/Def2QZVP 

acrolein

0 1
C  -4.998644  -1.377850   0.918458
O  -3.929350  -0.864698   0.627977
C  -5.187983  -2.845799   1.186845
C  -6.427448  -3.294719   1.385328
H  -4.317768  -3.468263   1.148615
H  -7.285873  -2.621975   1.415982
H  -6.603504  -4.345280   1.378292
H  -5.831508  -0.815867   0.975548
