%chk=/home/boittier/MDCM/nms_sampling/acrolein_geom.xyz.dir/acrolein_459.chk
%nproc=8
%mem=16000MB
#p B2PLYPD3/Def2QZVP 

acrolein

0 1
C  -5.003874  -1.396539   0.912206
O  -3.941451  -0.856729   0.644790
C  -5.190036  -2.829178   1.165114
C  -6.402007  -3.307100   1.385497
H  -4.268677  -3.471518   1.092189
H  -7.292987  -2.658953   1.449690
H  -6.562729  -4.313489   1.551823
H  -5.945801  -0.775527   0.896759

