%chk=/home/boittier/MDCM/nms_sampling/acrolein_geom.xyz.dir/acrolein_2294.chk
%nproc=8
%mem=16000MB
#p B2PLYPD3/Def2QZVP 

acrolein

0 1
C  -5.005574  -1.369233   0.811926
O  -3.923009  -0.864910   0.701173
C  -5.181277  -2.848838   1.145581
C  -6.436195  -3.311736   1.437990
H  -4.236178  -3.457171   1.013219
H  -7.444558  -2.633282   1.566106
H  -6.551455  -4.310110   1.421098
H  -5.817392  -0.730847   0.894935

