%chk=/home/boittier/MDCM/nms_sampling/acrolein_geom.xyz.dir/acrolein_2694.chk
%nproc=8
%mem=16000MB
#p B2PLYPD3/Def2QZVP 

acrolein

0 1
C  -5.025623  -1.381556   0.882133
O  -3.947195  -0.858963   0.688459
C  -5.179982  -2.858666   1.080796
C  -6.394633  -3.294760   1.444778
H  -4.274300  -3.437589   1.090386
H  -7.265589  -2.627702   1.299926
H  -6.488733  -4.340062   1.746428
H  -5.878435  -0.730194   0.831194

