%chk=/home/boittier/MDCM/nms_sampling/acrolein_geom.xyz.dir/acrolein_506.chk
%nproc=8
%mem=16000MB
#p B2PLYPD3/Def2QZVP 

acrolein

0 1
C  -5.004830  -1.373677   0.904859
O  -3.930235  -0.876777   0.647442
C  -5.203914  -2.810851   1.163668
C  -6.400594  -3.319861   1.397216
H  -4.327673  -3.427657   1.087208
H  -7.283290  -2.688523   1.409737
H  -6.542083  -4.338368   1.503169
H  -5.932696  -0.777491   0.915115

