%chk=/home/boittier/MDCM/nms_sampling/acrolein_geom.xyz.dir/acrolein_1979.chk
%nproc=8
%mem=16000MB
#p B2PLYPD3/Def2QZVP 

acrolein

0 1
C  -5.012527  -1.337419   0.935773
O  -3.929616  -0.900386   0.640704
C  -5.210032  -2.812251   1.121754
C  -6.384955  -3.315505   1.410795
H  -4.397983  -3.390916   1.171239
H  -7.294850  -2.720161   1.180943
H  -6.547029  -4.419817   1.668935
H  -5.866503  -0.776128   0.976403

