%chk=/home/boittier/MDCM/nms_sampling/acrolein_geom.xyz.dir/acrolein_1263.chk
%nproc=8
%mem=16000MB
#p B2PLYPD3/Def2QZVP 

acrolein

0 1
C  -5.008688  -1.394583   0.933615
O  -3.940716  -0.848139   0.625196
C  -5.182691  -2.841574   1.155469
C  -6.405464  -3.306410   1.372571
H  -4.223217  -3.466958   1.274493
H  -7.356898  -2.679984   1.370534
H  -6.516053  -4.290695   1.590636
H  -5.983497  -0.811932   1.062067

