%chk=/home/boittier/MDCM/nms_sampling/acrolein_geom.xyz.dir/acrolein_1924.chk
%nproc=8
%mem=16000MB
#p B2PLYPD3/Def2QZVP 

acrolein

0 1
C  -5.000410  -1.354127   0.824462
O  -3.923316  -0.910039   0.704138
C  -5.213489  -2.778338   1.127717
C  -6.402486  -3.324462   1.413993
H  -4.469623  -3.320526   1.030075
H  -7.087707  -2.634038   1.612751
H  -6.652947  -4.488313   1.673455
H  -5.861977  -0.793661   0.879616

