%chk=/home/boittier/MDCM/nms_sampling/acrolein_geom.xyz.dir/acrolein_2339.chk
%nproc=8
%mem=16000MB
#p B2PLYPD3/Def2QZVP 

acrolein

0 1
C  -4.999366  -1.375196   0.940066
O  -3.912867  -0.867466   0.609562
C  -5.205437  -2.854794   1.200253
C  -6.438021  -3.298590   1.381026
H  -4.327150  -3.426623   1.205576
H  -7.179948  -2.657811   1.408943
H  -6.573824  -4.255487   1.251043
H  -5.872918  -0.740811   0.974160
