%chk=/home/boittier/MDCM/nms_sampling/acrolein_geom.xyz.dir/acrolein_1352.chk
%nproc=8
%mem=16000MB
#p B2PLYPD3/Def2QZVP 

acrolein

0 1
C  -5.019568  -1.365919   0.896325
O  -3.938792  -0.887387   0.649947
C  -5.188579  -2.798083   1.155755
C  -6.382403  -3.324829   1.378319
H  -4.408990  -3.390624   1.155387
H  -7.227570  -2.685780   1.434753
H  -6.597446  -4.376391   1.660168
H  -5.914931  -0.781921   1.034448
