%chk=/home/boittier/MDCM/nms_sampling/acrolein_geom.xyz.dir/acrolein_819.chk
%nproc=8
%mem=16000MB
#p B2PLYPD3/Def2QZVP 

acrolein

0 1
C  -5.009141  -1.369924   0.877075
O  -3.930406  -0.874693   0.677221
C  -5.196074  -2.820809   1.126517
C  -6.407191  -3.317938   1.423125
H  -4.292971  -3.436028   1.054729
H  -7.273603  -2.686650   1.432702
H  -6.549646  -4.328722   1.592147
H  -5.928191  -0.764036   0.833489

