%chk=/home/boittier/MDCM/nms_sampling/acrolein_geom.xyz.dir/acrolein_4.chk
%nproc=8
%mem=16000MB
#p B2PLYPD3/Def2QZVP 

acrolein

0 1
C  -5.000512  -1.387019   0.873078
O  -3.933751  -0.863672   0.675442
C  -5.194552  -2.830342   1.125770
C  -6.409005  -3.307986   1.409005
H  -4.347683  -3.436688   1.113449
H  -7.281598  -2.637913   1.452949
H  -6.543058  -4.308256   1.665398
H  -5.915187  -0.801033   0.924314
