%chk=/home/boittier/MDCM/nms_sampling/acrolein_geom.xyz.dir/acrolein_1914.chk
%nproc=8
%mem=16000MB
#p B2PLYPD3/Def2QZVP 

acrolein

0 1
C  -4.985867  -1.388943   0.817594
O  -3.928063  -0.844421   0.717950
C  -5.211025  -2.874378   1.127667
C  -6.433498  -3.291572   1.455903
H  -4.189438  -3.483421   0.817396
H  -7.399693  -2.684939   1.471192
H  -6.472857  -4.176805   1.574497
H  -5.839863  -0.828040   0.729827
