%chk=/home/boittier/MDCM/nms_sampling/acrolein_geom.xyz.dir/acrolein_2186.chk
%nproc=8
%mem=16000MB
#p B2PLYPD3/Def2QZVP 

acrolein

0 1
C  -4.976670  -1.410810   0.821854
O  -3.912625  -0.856663   0.710788
C  -5.205869  -2.803760   1.080171
C  -6.436089  -3.308991   1.454431
H  -4.289064  -3.456801   1.158993
H  -7.406023  -2.598276   1.423510
H  -6.652786  -4.428684   1.661264
H  -5.932517  -0.863213   0.959752
