%chk=/home/boittier/MDCM/nms_sampling/acrolein_geom.xyz.dir/acrolein_1134.chk
%nproc=8
%mem=16000MB
#p B2PLYPD3/Def2QZVP 

acrolein

0 1
C  -5.016061  -1.391301   0.923356
O  -3.938788  -0.877960   0.633462
C  -5.195596  -2.782608   1.172280
C  -6.385114  -3.323488   1.371262
H  -4.303974  -3.387977   1.105199
H  -7.221904  -2.705750   1.350049
H  -6.582563  -4.452868   1.645273
H  -5.982304  -0.754161   1.021321
