%chk=/home/boittier/MDCM/nms_sampling/acrolein_geom.xyz.dir/acrolein_1192.chk
%nproc=8
%mem=16000MB
#p B2PLYPD3/Def2QZVP 

acrolein

0 1
C  -5.014310  -1.373172   0.842766
O  -3.947655  -0.882041   0.696995
C  -5.188737  -2.806845   1.122485
C  -6.381388  -3.321701   1.421672
H  -4.388001  -3.399944   1.038215
H  -7.249369  -2.652999   1.553748
H  -6.546618  -4.362924   1.637984
H  -5.898982  -0.747246   0.837021
