%chk=/home/boittier/MDCM/nms_sampling/acrolein_geom.xyz.dir/acrolein_280.chk
%nproc=8
%mem=16000MB
#p B2PLYPD3/Def2QZVP 

acrolein

0 1
C  -5.000788  -1.384826   0.896882
O  -3.930027  -0.866263   0.646766
C  -5.195088  -2.827149   1.168936
C  -6.418333  -3.306377   1.392325
H  -4.287499  -3.454332   1.116675
H  -7.243409  -2.646670   1.431027
H  -6.594168  -4.344320   1.490073
H  -5.902994  -0.788535   0.972108

