%chk=/home/boittier/MDCM/nms_sampling/acrolein_geom.xyz.dir/acrolein_2597.chk
%nproc=8
%mem=16000MB
#p B2PLYPD3/Def2QZVP 

acrolein

0 1
C  -4.987604  -1.446238   0.926487
O  -3.956837  -0.824916   0.620831
C  -5.185045  -2.853720   1.167272
C  -6.423402  -3.282524   1.346173
H  -4.273390  -3.429737   1.301082
H  -7.207406  -2.594860   1.368207
H  -6.518023  -4.210450   1.723785
H  -5.818344  -0.903714   1.224044
