%chk=/home/boittier/MDCM/nms_sampling/acrolein_geom.xyz.dir/acrolein_1770.chk
%nproc=8
%mem=16000MB
#p B2PLYPD3/Def2QZVP 

acrolein

0 1
C  -5.021777  -1.376183   0.850107
O  -3.943268  -0.876695   0.695225
C  -5.182970  -2.797059   1.103662
C  -6.384249  -3.324089   1.438428
H  -4.306289  -3.426554   1.051710
H  -7.283463  -2.667954   1.349334
H  -6.555559  -4.429531   1.708379
H  -5.964493  -0.790836   0.930870

