%chk=/home/boittier/MDCM/nms_sampling/acrolein_geom.xyz.dir/acrolein_312.chk
%nproc=8
%mem=16000MB
#p B2PLYPD3/Def2QZVP 

acrolein

0 1
C  -4.999415  -1.389598   0.895941
O  -3.926655  -0.860976   0.661205
C  -5.195058  -2.835500   1.132237
C  -6.417883  -3.300252   1.411467
H  -4.311908  -3.446530   1.116722
H  -7.279432  -2.650832   1.372518
H  -6.563528  -4.357445   1.603771
H  -5.952700  -0.773906   0.915259
