%chk=/home/boittier/MDCM/nms_sampling/acrolein_geom.xyz.dir/acrolein_800.chk
%nproc=8
%mem=16000MB
#p B2PLYPD3/Def2QZVP 

acrolein

0 1
C  -5.006824  -1.384635   0.862901
O  -3.942147  -0.862611   0.681234
C  -5.187380  -2.829354   1.123456
C  -6.407595  -3.310441   1.422433
H  -4.260946  -3.447064   1.092087
H  -7.266123  -2.658268   1.429601
H  -6.529792  -4.322674   1.616567
H  -5.926339  -0.793491   0.917914
