%chk=/home/boittier/MDCM/nms_sampling/acrolein_geom.xyz.dir/acrolein_570.chk
%nproc=8
%mem=16000MB
#p B2PLYPD3/Def2QZVP 

acrolein

0 1
C  -5.012188  -1.367966   0.912966
O  -3.929523  -0.879947   0.641090
C  -5.201171  -2.813933   1.152143
C  -6.395034  -3.316225   1.383553
H  -4.356773  -3.419898   1.198377
H  -7.231736  -2.678773   1.404160
H  -6.555326  -4.366761   1.596526
H  -5.952540  -0.778364   1.007889
