%chk=/home/boittier/MDCM/nms_sampling/acrolein_geom.xyz.dir/acrolein_2296.chk
%nproc=8
%mem=16000MB
#p B2PLYPD3/Def2QZVP 

acrolein

0 1
C  -5.044014  -1.354516   0.925639
O  -3.948046  -0.893528   0.608468
C  -5.174783  -2.786225   1.231164
C  -6.351051  -3.331328   1.331370
H  -4.445114  -3.347484   1.154128
H  -7.245314  -2.674993   1.511385
H  -6.506442  -4.505208   1.464805
H  -6.036253  -0.786647   1.114681
