%chk=/home/boittier/MDCM/nms_sampling/acrolein_geom.xyz.dir/acrolein_2472.chk
%nproc=8
%mem=16000MB
#p B2PLYPD3/Def2QZVP 

acrolein

0 1
C  -5.037989  -1.357989   0.898836
O  -3.941729  -0.882191   0.673649
C  -5.187874  -2.801440   1.137133
C  -6.383722  -3.345174   1.401577
H  -4.211120  -3.473601   0.993800
H  -7.228011  -2.638642   1.602708
H  -6.516589  -4.304274   1.616093
H  -5.927998  -0.729628   0.632122
