%chk=/home/boittier/MDCM/nms_sampling/acrolein_geom.xyz.dir/acrolein_233.chk
%nproc=8
%mem=16000MB
#p B2PLYPD3/Def2QZVP 

acrolein

0 1
C  -4.999557  -1.388235   0.883817
O  -3.937992  -0.864370   0.662390
C  -5.193825  -2.827272   1.143918
C  -6.406886  -3.306759   1.397392
H  -4.310627  -3.453772   1.128943
H  -7.333296  -2.664076   1.454209
H  -6.548752  -4.329578   1.612042
H  -5.882567  -0.772130   0.958950
