%chk=/home/boittier/MDCM/nms_sampling/acrolein_geom.xyz.dir/acrolein_1674.chk
%nproc=8
%mem=16000MB
#p B2PLYPD3/Def2QZVP 

acrolein

0 1
C  -5.016034  -1.370117   0.931752
O  -3.945648  -0.882503   0.629410
C  -5.179063  -2.794978   1.162340
C  -6.382365  -3.326138   1.390231
H  -4.388679  -3.387635   1.158104
H  -7.256314  -2.672274   1.305336
H  -6.541104  -4.432480   1.525105
H  -6.013106  -0.786354   0.989087
