%chk=/home/boittier/MDCM/nms_sampling/acrolein_geom.xyz.dir/acrolein_488.chk
%nproc=8
%mem=16000MB
#p B2PLYPD3/Def2QZVP 

acrolein

0 1
C  -5.000920  -1.386217   0.914315
O  -3.931085  -0.864586   0.637797
C  -5.191606  -2.826287   1.163210
C  -6.417766  -3.308942   1.386110
H  -4.279836  -3.430812   1.141753
H  -7.299149  -2.648907   1.334364
H  -6.590961  -4.346177   1.580110
H  -5.891565  -0.805913   1.032556

