%chk=/home/boittier/MDCM/nms_sampling/acrolein_geom.xyz.dir/acrolein_2693.chk
%nproc=8
%mem=16000MB
#p B2PLYPD3/Def2QZVP 

acrolein

0 1
C  -4.985033  -1.401385   0.833002
O  -3.920551  -0.861666   0.719893
C  -5.202308  -2.817015   1.053647
C  -6.433816  -3.295481   1.477895
H  -4.388175  -3.485956   1.131063
H  -7.326669  -2.680568   1.421596
H  -6.602862  -4.336206   1.643437
H  -5.796935  -0.861164   0.777436
