%chk=/home/boittier/MDCM/nms_sampling/acrolein_geom.xyz.dir/acrolein_760.chk
%nproc=8
%mem=16000MB
#p B2PLYPD3/Def2QZVP 

acrolein

0 1
C  -4.997880  -1.398809   0.906212
O  -3.934131  -0.859236   0.647419
C  -5.193423  -2.827831   1.145431
C  -6.417891  -3.301124   1.395979
H  -4.301779  -3.446840   1.171562
H  -7.265474  -2.671540   1.366673
H  -6.569151  -4.330275   1.589801
H  -5.891663  -0.788098   0.995961

