%chk=/home/boittier/MDCM/nms_sampling/acrolein_geom.xyz.dir/acrolein_936.chk
%nproc=8
%mem=16000MB
#p B2PLYPD3/Def2QZVP 

acrolein

0 1
C  -5.004578  -1.385522   0.865132
O  -3.922589  -0.880277   0.686974
C  -5.208880  -2.793020   1.107912
C  -6.399093  -3.320073   1.432621
H  -4.352999  -3.393239   1.055030
H  -7.206346  -2.654561   1.336915
H  -6.621269  -4.429086   1.706209
H  -5.977459  -0.762894   0.914022
