%chk=/home/boittier/MDCM/nms_sampling/acrolein_geom.xyz.dir/acrolein_253.chk
%nproc=8
%mem=16000MB
#p B2PLYPD3/Def2QZVP 

acrolein

0 1
C  -5.016062  -1.365004   0.906144
O  -3.927268  -0.880202   0.641243
C  -5.201858  -2.810173   1.175664
C  -6.398573  -3.323819   1.385840
H  -4.292082  -3.430084   1.094971
H  -7.253220  -2.674607   1.411077
H  -6.541847  -4.366962   1.509740
H  -5.954579  -0.767694   0.971800
