%chk=/home/boittier/MDCM/nms_sampling/acrolein_geom.xyz.dir/acrolein_1238.chk
%nproc=8
%mem=16000MB
#p B2PLYPD3/Def2QZVP 

acrolein

0 1
C  -4.997337  -1.377988   0.858242
O  -3.930756  -0.861192   0.695421
C  -5.197683  -2.852109   1.100608
C  -6.419898  -3.294962   1.435086
H  -4.317993  -3.499930   1.027445
H  -7.285620  -2.627822   1.359043
H  -6.527459  -4.297515   1.753841
H  -5.880982  -0.795640   0.880309

