%chk=/home/boittier/MDCM/nms_sampling/acrolein_geom.xyz.dir/acrolein_1376.chk
%nproc=8
%mem=16000MB
#p B2PLYPD3/Def2QZVP 

acrolein

0 1
C  -5.014404  -1.364247   0.855361
O  -3.928944  -0.880249   0.684227
C  -5.180816  -2.807834   1.131900
C  -6.403517  -3.331729   1.412855
H  -4.326688  -3.429995   1.071874
H  -7.325739  -2.646232   1.506160
H  -6.585700  -4.375179   1.627565
H  -5.985254  -0.726755   0.903926

