%chk=/home/boittier/MDCM/nms_sampling/acrolein_geom.xyz.dir/acrolein_881.chk
%nproc=8
%mem=16000MB
#p B2PLYPD3/Def2QZVP 

acrolein

0 1
C  -5.006398  -1.388041   0.871049
O  -3.939809  -0.873997   0.676484
C  -5.201533  -2.804812   1.128993
C  -6.391504  -3.311799   1.419913
H  -4.320241  -3.415196   1.106994
H  -7.202455  -2.685003   1.491636
H  -6.579200  -4.391757   1.543428
H  -5.940234  -0.779012   0.853797

