%chk=/home/boittier/MDCM/nms_sampling/acrolein_geom.xyz.dir/acrolein_1758.chk
%nproc=8
%mem=16000MB
#p B2PLYPD3/Def2QZVP 

acrolein

0 1
C  -5.004804  -1.410315   0.857820
O  -3.937559  -0.848819   0.674962
C  -5.192377  -2.832028   1.153039
C  -6.415058  -3.298832   1.415796
H  -4.180126  -3.442362   1.056255
H  -7.264308  -2.658612   1.494270
H  -6.555486  -4.371795   1.480342
H  -5.942800  -0.784944   0.910254
