%chk=/home/boittier/MDCM/nms_sampling/acrolein_geom.xyz.dir/acrolein_2132.chk
%nproc=8
%mem=16000MB
#p B2PLYPD3/Def2QZVP 

acrolein

0 1
C  -4.993841  -1.431404   0.834465
O  -3.956555  -0.830149   0.723317
C  -5.182772  -2.854177   1.039410
C  -6.400408  -3.283890   1.443150
H  -4.332180  -3.511620   1.209506
H  -7.274927  -2.599710   1.541611
H  -6.462488  -4.268935   1.895436
H  -5.983168  -0.802163   0.824179
