%chk=/home/boittier/MDCM/nms_sampling/acrolein_geom.xyz.dir/acrolein_128.chk
%nproc=8
%mem=16000MB
#p B2PLYPD3/Def2QZVP 

acrolein

0 1
C  -5.005598  -1.368077   0.895476
O  -3.931277  -0.881229   0.650106
C  -5.196164  -2.813054   1.164794
C  -6.409385  -3.312291   1.386815
H  -4.313407  -3.422308   1.123127
H  -7.227337  -2.657850   1.481060
H  -6.592232  -4.417497   1.533075
H  -5.903750  -0.786861   0.948991
