%chk=/home/boittier/MDCM/nms_sampling/acrolein_geom.xyz.dir/acrolein_2079.chk
%nproc=8
%mem=16000MB
#p B2PLYPD3/Def2QZVP 

acrolein

0 1
C  -4.992162  -1.417654   0.809864
O  -3.945968  -0.833288   0.723749
C  -5.166002  -2.874508   1.120908
C  -6.429375  -3.255693   1.436383
H  -4.249994  -3.491277   0.885044
H  -7.315858  -2.595810   1.632357
H  -6.625954  -4.470438   1.656156
H  -5.905353  -0.843969   0.717648
