%chk=/home/boittier/MDCM/nms_sampling/acrolein_geom.xyz.dir/acrolein_2399.chk
%nproc=8
%mem=16000MB
#p B2PLYPD3/Def2QZVP 

acrolein

0 1
C  -4.977816  -1.414378   0.822201
O  -3.935728  -0.836425   0.723924
C  -5.199628  -2.848906   1.087392
C  -6.421251  -3.308784   1.468132
H  -4.229153  -3.421173   1.015978
H  -7.415445  -2.622374   1.627194
H  -6.522917  -4.197305   1.499314
H  -5.981429  -0.859636   0.613128
