%chk=/home/boittier/MDCM/nms_sampling/acrolein_geom.xyz.dir/acrolein_1236.chk
%nproc=8
%mem=16000MB
#p B2PLYPD3/Def2QZVP 

acrolein

0 1
C  -4.996925  -1.389050   0.911560
O  -3.928540  -0.865061   0.644020
C  -5.193008  -2.829711   1.147990
C  -6.417038  -3.300966   1.385509
H  -4.369060  -3.432593   1.188135
H  -7.285947  -2.648470   1.399512
H  -6.599749  -4.343456   1.619833
H  -5.881902  -0.805603   0.997694

