%chk=/home/boittier/MDCM/nms_sampling/acrolein_geom.xyz.dir/acrolein_2483.chk
%nproc=8
%mem=16000MB
#p B2PLYPD3/Def2QZVP 

acrolein

0 1
C  -5.005510  -1.351123   0.980591
O  -3.912760  -0.899707   0.589552
C  -5.211153  -2.788096   1.184151
C  -6.398035  -3.328207   1.346689
H  -4.324952  -3.355167   1.316319
H  -7.238924  -2.678557   1.299814
H  -6.705460  -4.511516   1.541134
H  -6.018352  -0.763958   1.111758

