%chk=/home/boittier/MDCM/nms_sampling/acrolein_geom.xyz.dir/acrolein_1002.chk
%nproc=8
%mem=16000MB
#p B2PLYPD3/Def2QZVP 

acrolein

0 1
C  -5.008793  -1.383748   0.864210
O  -3.949642  -0.860500   0.681091
C  -5.181168  -2.844919   1.121541
C  -6.400100  -3.300791   1.423824
H  -4.278555  -3.447028   1.074664
H  -7.269766  -2.689612   1.372123
H  -6.533493  -4.300899   1.658454
H  -5.919135  -0.753388   0.947908

