%chk=/home/boittier/MDCM/nms_sampling/acrolein_geom.xyz.dir/acrolein_1291.chk
%nproc=8
%mem=16000MB
#p B2PLYPD3/Def2QZVP 

acrolein

0 1
C  -5.014039  -1.382295   0.914624
O  -3.945919  -0.878928   0.625649
C  -5.187117  -2.796374   1.197517
C  -6.388773  -3.321417   1.357875
H  -4.302328  -3.399815   1.160608
H  -7.237417  -2.695616   1.473212
H  -6.601622  -4.403235   1.500835
H  -5.913583  -0.755228   1.058686

