%chk=/home/boittier/MDCM/nms_sampling/acrolein_geom.xyz.dir/acrolein_777.chk
%nproc=8
%mem=16000MB
#p B2PLYPD3/Def2QZVP 

acrolein

0 1
C  -5.010028  -1.383734   0.911402
O  -3.935232  -0.871234   0.646272
C  -5.185876  -2.809405   1.146453
C  -6.406450  -3.315776   1.387520
H  -4.289783  -3.425651   1.173381
H  -7.268619  -2.670535   1.415151
H  -6.577910  -4.404772   1.616186
H  -5.948066  -0.766637   0.962786

