%chk=/home/boittier/MDCM/nms_sampling/acrolein_geom.xyz.dir/acrolein_1197.chk
%nproc=8
%mem=16000MB
#p B2PLYPD3/Def2QZVP 

acrolein

0 1
C  -4.987669  -1.406181   0.927651
O  -3.925652  -0.848852   0.624084
C  -5.192201  -2.845699   1.184434
C  -6.433435  -3.288739   1.363618
H  -4.304368  -3.461457   1.147431
H  -7.282527  -2.672298   1.368640
H  -6.586245  -4.322934   1.580797
H  -5.948408  -0.791052   1.061855
