%chk=/home/boittier/MDCM/nms_sampling/acrolein_geom.xyz.dir/acrolein_31.chk
%nproc=8
%mem=16000MB
#p B2PLYPD3/Def2QZVP 

acrolein

0 1
C  -5.012255  -1.365734   0.875043
O  -3.930842  -0.879658   0.677971
C  -5.194654  -2.816167   1.112478
C  -6.399844  -3.313157   1.413782
H  -4.336904  -3.446545   1.149782
H  -7.255183  -2.658381   1.458590
H  -6.576318  -4.399024   1.679381
H  -5.927776  -0.781118   0.903902

