%chk=/home/boittier/MDCM/nms_sampling/acrolein_geom.xyz.dir/acrolein_52.chk
%nproc=8
%mem=16000MB
#p B2PLYPD3/Def2QZVP 

acrolein

0 1
C  -5.006144  -1.388295   0.886279
O  -3.939218  -0.862299   0.666467
C  -5.186166  -2.830596   1.126067
C  -6.409570  -3.303165   1.414438
H  -4.298387  -3.439932   1.133861
H  -7.239191  -2.647391   1.375914
H  -6.562057  -4.355545   1.621931
H  -5.923386  -0.804454   0.943380
