%chk=/home/boittier/MDCM/nms_sampling/acrolein_geom.xyz.dir/acrolein_2166.chk
%nproc=8
%mem=16000MB
#p B2PLYPD3/Def2QZVP 

acrolein

0 1
C  -5.019158  -1.372693   0.945608
O  -3.936262  -0.891270   0.602230
C  -5.185630  -2.773969   1.191232
C  -6.391835  -3.324636   1.340640
H  -4.243732  -3.373523   1.304513
H  -7.198674  -2.685016   1.346199
H  -6.665689  -4.608526   1.589781
H  -6.017040  -0.731461   1.224726

