%chk=/home/boittier/MDCM/nms_sampling/acrolein_geom.xyz.dir/acrolein_1825.chk
%nproc=8
%mem=16000MB
#p B2PLYPD3/Def2QZVP 

acrolein

0 1
C  -4.984825  -1.395241   0.925742
O  -3.913995  -0.857560   0.627698
C  -5.185328  -2.827563   1.141959
C  -6.456896  -3.301017   1.396274
H  -4.265195  -3.417496   1.339526
H  -7.325141  -2.643361   1.312320
H  -6.611482  -4.420641   1.481556
H  -5.944111  -0.836780   1.092941
