%chk=/home/boittier/MDCM/nms_sampling/acrolein_geom.xyz.dir/acrolein_699.chk
%nproc=8
%mem=16000MB
#p B2PLYPD3/Def2QZVP 

acrolein

0 1
C  -5.004779  -1.381112   0.918068
O  -3.933340  -0.862995   0.640736
C  -5.189364  -2.835440   1.166631
C  -6.415867  -3.310533   1.382206
H  -4.275226  -3.448114   1.108892
H  -7.312269  -2.645609   1.451958
H  -6.551861  -4.301008   1.545210
H  -5.889499  -0.791844   0.898404

