%chk=/home/boittier/MDCM/nms_sampling/acrolein_geom.xyz.dir/acrolein_1080.chk
%nproc=8
%mem=16000MB
#p B2PLYPD3/Def2QZVP 

acrolein

0 1
C  -4.989535  -1.398766   0.901521
O  -3.927569  -0.854862   0.640492
C  -5.200531  -2.826236   1.185568
C  -6.426556  -3.304349   1.369578
H  -4.219717  -3.472286   1.111770
H  -7.299622  -2.638194   1.510529
H  -6.571084  -4.365761   1.521532
H  -5.966546  -0.822286   0.978498

