%chk=/home/boittier/MDCM/nms_sampling/acrolein_geom.xyz.dir/acrolein_546.chk
%nproc=8
%mem=16000MB
#p B2PLYPD3/Def2QZVP 

acrolein

0 1
C  -5.006072  -1.381114   0.871043
O  -3.926956  -0.872656   0.678225
C  -5.200606  -2.808922   1.129762
C  -6.402783  -3.322505   1.413664
H  -4.325924  -3.444004   1.090777
H  -7.277684  -2.664897   1.522483
H  -6.568048  -4.331297   1.584995
H  -5.963609  -0.760163   0.835856
