%chk=/home/boittier/MDCM/nms_sampling/acrolein_geom.xyz.dir/acrolein_2522.chk
%nproc=8
%mem=16000MB
#p B2PLYPD3/Def2QZVP 

acrolein

0 1
C  -5.025851  -1.383783   0.848319
O  -3.936312  -0.887428   0.696856
C  -5.187065  -2.764007   1.084433
C  -6.371837  -3.338502   1.421848
H  -4.367192  -3.337810   1.206344
H  -7.311632  -2.752099   1.476985
H  -6.580024  -4.478324   1.790370
H  -6.014448  -0.715496   0.966436
