%chk=/home/boittier/MDCM/nms_sampling/acrolein_geom.xyz.dir/acrolein_1873.chk
%nproc=8
%mem=16000MB
#p B2PLYPD3/Def2QZVP 

acrolein

0 1
C  -4.988224  -1.394337   0.942948
O  -3.923967  -0.849221   0.594670
C  -5.192501  -2.862599   1.234919
C  -6.422450  -3.280282   1.318240
H  -4.450672  -3.494520   1.219818
H  -7.476558  -2.652558   1.486055
H  -6.530517  -4.274934   1.482729
H  -5.818523  -0.846683   1.174432

