%chk=/home/boittier/MDCM/nms_sampling/acrolein_geom.xyz.dir/acrolein_529.chk
%nproc=8
%mem=16000MB
#p B2PLYPD3/Def2QZVP 

acrolein

0 1
C  -5.000278  -1.397661   0.876947
O  -3.942066  -0.858940   0.672598
C  -5.195511  -2.828949   1.137216
C  -6.405939  -3.301082   1.416525
H  -4.297411  -3.439471   1.055598
H  -7.251227  -2.653529   1.432881
H  -6.536859  -4.334312   1.576292
H  -5.900511  -0.811149   0.872375

