%chk=/home/boittier/MDCM/nms_sampling/acrolein_geom.xyz.dir/acrolein_206.chk
%nproc=8
%mem=16000MB
#p B2PLYPD3/Def2QZVP 

acrolein

0 1
C  -4.999399  -1.395071   0.876146
O  -3.939184  -0.858818   0.671565
C  -5.193568  -2.825634   1.146241
C  -6.402475  -3.309727   1.414208
H  -4.287589  -3.437691   1.020940
H  -7.311957  -2.660125   1.434794
H  -6.566444  -4.315775   1.562589
H  -5.946511  -0.804189   0.867734

