%chk=/home/boittier/MDCM/nms_sampling/acrolein_geom.xyz.dir/acrolein_1586.chk
%nproc=8
%mem=16000MB
#p B2PLYPD3/Def2QZVP 

acrolein

0 1
C  -5.001504  -1.376620   0.938062
O  -3.929509  -0.885368   0.618905
C  -5.210976  -2.783559   1.172347
C  -6.403671  -3.324007   1.359162
H  -4.315059  -3.437885   1.243964
H  -7.182581  -2.702243   1.388133
H  -6.580784  -4.403985   1.596169
H  -5.935278  -0.792291   1.075877

