%chk=/home/boittier/MDCM/nms_sampling/acrolein_geom.xyz.dir/acrolein_543.chk
%nproc=8
%mem=16000MB
#p B2PLYPD3/Def2QZVP 

acrolein

0 1
C  -5.005538  -1.382488   0.886518
O  -3.928318  -0.873114   0.661643
C  -5.199368  -2.809167   1.143157
C  -6.412701  -3.315644   1.409627
H  -4.275680  -3.442459   1.128895
H  -7.235840  -2.679983   1.452046
H  -6.579756  -4.374055   1.513656
H  -5.926223  -0.763698   0.904498

