%chk=/home/boittier/MDCM/nms_sampling/acrolein_geom.xyz.dir/acrolein_1148.chk
%nproc=8
%mem=16000MB
#p B2PLYPD3/Def2QZVP 

acrolein

0 1
C  -5.005632  -1.393310   0.851492
O  -3.944456  -0.873299   0.692304
C  -5.205860  -2.799602   1.119581
C  -6.385331  -3.310877   1.417577
H  -4.331042  -3.441292   1.061878
H  -7.137904  -2.668645   1.524864
H  -6.589644  -4.377695   1.672888
H  -5.935387  -0.800030   0.860284
