%chk=/home/boittier/MDCM/nms_sampling/acrolein_geom.xyz.dir/acrolein_1760.chk
%nproc=8
%mem=16000MB
#p B2PLYPD3/Def2QZVP 

acrolein

0 1
C  -5.027281  -1.362247   0.900531
O  -3.942660  -0.883667   0.649054
C  -5.188032  -2.810857   1.135039
C  -6.376770  -3.315064   1.403208
H  -4.346718  -3.411493   1.228731
H  -7.207683  -2.693532   1.335099
H  -6.580030  -4.409093   1.582774
H  -5.935384  -0.787988   1.051370
