%chk=/home/boittier/MDCM/nms_sampling/acrolein_geom.xyz.dir/acrolein_1271.chk
%nproc=8
%mem=16000MB
#p B2PLYPD3/Def2QZVP 

acrolein

0 1
C  -5.009572  -1.366062   0.863997
O  -3.930051  -0.886956   0.674758
C  -5.203346  -2.790742   1.141320
C  -6.402421  -3.329392   1.420047
H  -4.268894  -3.414379   1.099548
H  -7.169743  -2.696855   1.502266
H  -6.616935  -4.388225   1.474756
H  -5.951795  -0.794868   0.880396

