%chk=/home/boittier/MDCM/nms_sampling/acrolein_geom.xyz.dir/acrolein_2583.chk
%nproc=8
%mem=16000MB
#p B2PLYPD3/Def2QZVP 

acrolein

0 1
C  -4.984814  -1.376171   0.938538
O  -3.924820  -0.855738   0.609514
C  -5.201500  -2.856638   1.231507
C  -6.446584  -3.316466   1.372284
H  -4.186529  -3.520112   0.974517
H  -7.361500  -2.608247   1.283008
H  -6.508069  -4.155234   1.358637
H  -5.856507  -0.767295   1.001284
