%chk=/home/boittier/MDCM/nms_sampling/acrolein_geom.xyz.dir/acrolein_2548.chk
%nproc=8
%mem=16000MB
#p B2PLYPD3/Def2QZVP 

acrolein

0 1
C  -4.973328  -1.420743   0.840254
O  -3.931299  -0.849105   0.698270
C  -5.230075  -2.830036   1.135119
C  -6.426570  -3.288036   1.441202
H  -4.220495  -3.422783   0.906000
H  -7.267370  -2.700629   1.426486
H  -6.543475  -4.299458   1.565457
H  -5.819575  -0.873401   0.815220

