%chk=/home/boittier/MDCM/nms_sampling/acrolein_geom.xyz.dir/acrolein_1266.chk
%nproc=8
%mem=16000MB
#p B2PLYPD3/Def2QZVP 

acrolein

0 1
C  -5.016035  -1.381309   0.899476
O  -3.948048  -0.874042   0.648023
C  -5.190334  -2.808223   1.166262
C  -6.381571  -3.318343   1.397370
H  -4.372691  -3.438012   1.065808
H  -7.216955  -2.694678   1.345476
H  -6.517716  -4.317125   1.544140
H  -5.934546  -0.770499   0.984881

