%chk=/home/boittier/MDCM/nms_sampling/acrolein_geom.xyz.dir/acrolein_2527.chk
%nproc=8
%mem=16000MB
#p B2PLYPD3/Def2QZVP 

acrolein

0 1
C  -5.012399  -1.404099   0.852851
O  -3.955017  -0.836724   0.695007
C  -5.177354  -2.886040   1.146988
C  -6.405312  -3.275710   1.409540
H  -4.259221  -3.486192   0.893529
H  -7.278154  -2.655550   1.623730
H  -6.500231  -4.205862   1.629874
H  -5.819262  -0.788670   0.698018
