%chk=/home/boittier/MDCM/nms_sampling/acrolein_geom.xyz.dir/acrolein_71.chk
%nproc=8
%mem=16000MB
#p B2PLYPD3/Def2QZVP 

acrolein

0 1
C  -4.996835  -1.399613   0.914505
O  -3.931445  -0.860457   0.641258
C  -5.200295  -2.824875   1.164296
C  -6.414081  -3.304568   1.392118
H  -4.288749  -3.434486   1.101379
H  -7.305229  -2.659800   1.370847
H  -6.586574  -4.330929   1.534046
H  -5.870051  -0.785264   0.945593

