%chk=/home/boittier/MDCM/nms_sampling/acrolein_geom.xyz.dir/acrolein_2068.chk
%nproc=8
%mem=16000MB
#p B2PLYPD3/Def2QZVP 

acrolein

0 1
C  -5.011124  -1.388228   0.964354
O  -3.951339  -0.837150   0.594470
C  -5.148795  -2.888789   1.178301
C  -6.419230  -3.281123   1.372551
H  -4.302697  -3.468474   1.324704
H  -7.379345  -2.617704   1.188328
H  -6.487296  -4.285344   1.449123
H  -5.932723  -0.836155   1.186025

