%chk=/home/boittier/MDCM/nms_sampling/acrolein_geom.xyz.dir/acrolein_686.chk
%nproc=8
%mem=16000MB
#p B2PLYPD3/Def2QZVP 

acrolein

0 1
C  -5.001108  -1.390596   0.894905
O  -3.929389  -0.865647   0.663582
C  -5.201856  -2.817789   1.127834
C  -6.409006  -3.311994   1.411001
H  -4.297825  -3.457013   1.114970
H  -7.286471  -2.662347   1.371162
H  -6.582663  -4.324284   1.639845
H  -5.905226  -0.782790   0.915397

