%chk=/home/boittier/MDCM/nms_sampling/acrolein_geom.xyz.dir/acrolein_2618.chk
%nproc=8
%mem=16000MB
#p B2PLYPD3/Def2QZVP 

acrolein

0 1
C  -4.992722  -1.384981   0.957119
O  -3.915485  -0.868246   0.609558
C  -5.209445  -2.822869   1.183587
C  -6.446578  -3.310396   1.354107
H  -4.164859  -3.496651   1.179903
H  -7.226487  -2.681301   1.329784
H  -6.658497  -4.300943   1.609240
H  -5.817394  -0.754234   1.043651

