%chk=/home/boittier/MDCM/nms_sampling/acrolein_geom.xyz.dir/acrolein_652.chk
%nproc=8
%mem=16000MB
#p B2PLYPD3/Def2QZVP 

acrolein

0 1
C  -5.006184  -1.380514   0.921059
O  -3.927114  -0.875120   0.637917
C  -5.198664  -2.801780   1.156501
C  -6.403491  -3.323093   1.390022
H  -4.333997  -3.438941   1.151959
H  -7.275325  -2.687524   1.353185
H  -6.557111  -4.362016   1.562418
H  -5.981166  -0.756063   0.972928
