%chk=/home/boittier/MDCM/nms_sampling/acrolein_geom.xyz.dir/acrolein_105.chk
%nproc=8
%mem=16000MB
#p B2PLYPD3/Def2QZVP 

acrolein

0 1
C  -5.001934  -1.393773   0.875743
O  -3.939502  -0.858460   0.677525
C  -5.183976  -2.831352   1.130065
C  -6.414754  -3.303086   1.423585
H  -4.251463  -3.437672   1.043350
H  -7.296778  -2.635427   1.449366
H  -6.597570  -4.365974   1.567303
H  -5.894906  -0.811194   0.816830
