%chk=/home/boittier/MDCM/nms_sampling/acrolein_geom.xyz.dir/acrolein_1960.chk
%nproc=8
%mem=16000MB
#p B2PLYPD3/Def2QZVP 

acrolein

0 1
C  -5.008950  -1.358975   0.869752
O  -3.912202  -0.909436   0.709019
C  -5.214578  -2.772184   1.052852
C  -6.410830  -3.320145   1.434962
H  -4.448552  -3.410162   1.100207
H  -7.120892  -2.667988   1.450498
H  -6.651123  -4.521731   1.941971
H  -5.829373  -0.713211   0.741406

