%chk=/home/boittier/MDCM/nms_sampling/acrolein_geom.xyz.dir/acrolein_2036.chk
%nproc=8
%mem=16000MB
#p B2PLYPD3/Def2QZVP 

acrolein

0 1
C  -5.009920  -1.400369   0.889704
O  -3.958597  -0.862466   0.632470
C  -5.179899  -2.805315   1.211450
C  -6.380843  -3.337688   1.382167
H  -4.298159  -3.365498   1.108117
H  -7.246905  -2.638334   1.451945
H  -6.497145  -4.263740   1.305744
H  -6.035547  -0.730521   1.064670
