%chk=/home/boittier/MDCM/nms_sampling/acrolein_geom.xyz.dir/acrolein_1822.chk
%nproc=8
%mem=16000MB
#p B2PLYPD3/Def2QZVP 

acrolein

0 1
C  -4.985173  -1.403354   0.983851
O  -3.933567  -0.856128   0.605668
C  -5.188206  -2.831898   1.162430
C  -6.431218  -3.293022   1.352102
H  -4.367030  -3.480858   1.201130
H  -7.328396  -2.631681   1.291614
H  -6.648081  -4.297233   1.720429
H  -5.750725  -0.874177   0.973510
