%chk=/home/boittier/MDCM/nms_sampling/acrolein_geom.xyz.dir/acrolein_1820.chk
%nproc=8
%mem=16000MB
#p B2PLYPD3/Def2QZVP 

acrolein

0 1
C  -4.979497  -1.404445   0.817333
O  -3.923782  -0.845884   0.725481
C  -5.179250  -2.862969   1.070815
C  -6.445878  -3.279945   1.461303
H  -4.371929  -3.412317   0.996680
H  -7.354930  -2.574705   1.331723
H  -6.626002  -4.363256   1.840927
H  -5.890427  -0.853906   0.907639
