%chk=/home/boittier/MDCM/nms_sampling/acrolein_geom.xyz.dir/acrolein_1370.chk
%nproc=8
%mem=16000MB
#p B2PLYPD3/Def2QZVP 

acrolein

0 1
C  -5.011996  -1.377182   0.862017
O  -3.948825  -0.879674   0.688237
C  -5.191162  -2.805651   1.092529
C  -6.381085  -3.312854   1.438237
H  -4.390919  -3.448698   1.170296
H  -7.233276  -2.682046   1.393975
H  -6.545431  -4.380272   1.650754
H  -5.903696  -0.759224   0.916713

