%chk=/home/boittier/MDCM/nms_sampling/acrolein_geom.xyz.dir/acrolein_1698.chk
%nproc=8
%mem=16000MB
#p B2PLYPD3/Def2QZVP 

acrolein

0 1
C  -5.011390  -1.395338   0.900402
O  -3.943288  -0.850764   0.645836
C  -5.178639  -2.850559   1.182214
C  -6.397001  -3.299499   1.377184
H  -4.296235  -3.450943   1.050160
H  -7.296028  -2.654287   1.478030
H  -6.555680  -4.295611   1.545421
H  -5.989446  -0.753446   0.935971
