%chk=/home/boittier/MDCM/nms_sampling/acrolein_geom.xyz.dir/acrolein_1293.chk
%nproc=8
%mem=16000MB
#p B2PLYPD3/Def2QZVP 

acrolein

0 1
C  -4.999184  -1.381627   0.933893
O  -3.928386  -0.881672   0.621400
C  -5.208683  -2.787992   1.178291
C  -6.410337  -3.327029   1.377984
H  -4.308325  -3.435794   1.125142
H  -7.219510  -2.681778   1.216210
H  -6.548483  -4.380231   1.589343
H  -5.934072  -0.748504   1.107831

