%chk=/home/boittier/MDCM/nms_sampling/acrolein_geom.xyz.dir/acrolein_1382.chk
%nproc=8
%mem=16000MB
#p B2PLYPD3/Def2QZVP 

acrolein

0 1
C  -5.003957  -1.363545   0.920053
O  -3.925082  -0.883137   0.632717
C  -5.203630  -2.804334   1.166763
C  -6.417336  -3.321357   1.366472
H  -4.264075  -3.455523   1.186196
H  -7.223406  -2.696962   1.398019
H  -6.586162  -4.371826   1.641115
H  -5.909669  -0.793104   1.058826
