%chk=/home/boittier/MDCM/nms_sampling/acrolein_geom.xyz.dir/acrolein_1826.chk
%nproc=8
%mem=16000MB
#p B2PLYPD3/Def2QZVP 

acrolein

0 1
C  -5.021081  -1.394486   0.838242
O  -3.960970  -0.859416   0.720357
C  -5.177866  -2.826069   1.103028
C  -6.382184  -3.310250   1.436739
H  -4.268176  -3.407247   0.910489
H  -7.384532  -2.645324   1.689377
H  -6.468568  -4.349643   1.670648
H  -5.807515  -0.800722   0.547619

