%chk=/home/boittier/MDCM/nms_sampling/acrolein_geom.xyz.dir/acrolein_2640.chk
%nproc=8
%mem=16000MB
#p B2PLYPD3/Def2QZVP 

acrolein

0 1
C  -5.019577  -1.379493   0.997419
O  -3.955106  -0.894045   0.586578
C  -5.192248  -2.778664   1.188570
C  -6.365104  -3.325085   1.331376
H  -4.409414  -3.336083   1.250471
H  -7.103994  -2.652116   1.324444
H  -6.601208  -4.469044   1.643317
H  -5.918093  -0.726700   1.035661

