%chk=/home/boittier/MDCM/nms_sampling/acrolein_geom.xyz.dir/acrolein_2184.chk
%nproc=8
%mem=16000MB
#p B2PLYPD3/Def2QZVP 

acrolein

0 1
C  -5.039278  -1.347314   0.860701
O  -3.929052  -0.897859   0.701963
C  -5.199095  -2.773993   1.083404
C  -6.361375  -3.358073   1.450671
H  -4.336068  -3.373750   1.052377
H  -7.282065  -2.636435   1.420851
H  -6.542070  -4.412291   1.682786
H  -6.034713  -0.764915   0.750307

