%chk=/home/boittier/MDCM/nms_sampling/acrolein_geom.xyz.dir/acrolein_976.chk
%nproc=8
%mem=16000MB
#p B2PLYPD3/Def2QZVP 

acrolein

0 1
C  -5.008804  -1.399896   0.875553
O  -3.946598  -0.857201   0.684142
C  -5.178352  -2.827129   1.100052
C  -6.394001  -3.304803   1.436703
H  -4.354952  -3.453128   1.078924
H  -7.326328  -2.648043   1.320695
H  -6.559399  -4.331766   1.696658
H  -5.914604  -0.778700   0.882212
