%chk=/home/boittier/MDCM/nms_sampling/acrolein_geom.xyz.dir/acrolein_942.chk
%nproc=8
%mem=16000MB
#p B2PLYPD3/Def2QZVP 

acrolein

0 1
C  -4.985371  -1.399644   0.873115
O  -3.932780  -0.857892   0.690280
C  -5.188483  -2.836297   1.091349
C  -6.419389  -3.292254   1.440352
H  -4.361320  -3.425173   1.075548
H  -7.317656  -2.625921   1.361029
H  -6.631420  -4.385365   1.708582
H  -5.925596  -0.808540   0.825590
