%chk=/home/boittier/MDCM/nms_sampling/acrolein_geom.xyz.dir/acrolein_1420.chk
%nproc=8
%mem=16000MB
#p B2PLYPD3/Def2QZVP 

acrolein

0 1
C  -5.010027  -1.383027   0.915300
O  -3.937919  -0.875948   0.633322
C  -5.201398  -2.796683   1.168724
C  -6.386281  -3.325956   1.365647
H  -4.309518  -3.394326   1.189902
H  -7.250533  -2.677431   1.394046
H  -6.522244  -4.394166   1.642827
H  -6.013499  -0.762354   1.089366
