%chk=/home/boittier/MDCM/nms_sampling/acrolein_geom.xyz.dir/acrolein_1744.chk
%nproc=8
%mem=16000MB
#p B2PLYPD3/Def2QZVP 

acrolein

0 1
C  -5.005674  -1.375498   0.905230
O  -3.929286  -0.884354   0.639135
C  -5.192666  -2.790708   1.174662
C  -6.413453  -3.320958   1.373247
H  -4.300996  -3.437591   1.159469
H  -7.239294  -2.665236   1.470288
H  -6.604483  -4.469102   1.541998
H  -5.921412  -0.740750   1.011341

