%chk=/home/boittier/MDCM/nms_sampling/acrolein_geom.xyz.dir/acrolein_10.chk
%nproc=8
%mem=16000MB
#p B2PLYPD3/Def2QZVP 

acrolein

0 1
C  -4.999268  -1.397042   0.917874
O  -3.940465  -0.861207   0.638908
C  -5.188632  -2.827495   1.153948
C  -6.402488  -3.300300   1.381603
H  -4.328124  -3.432416   1.193735
H  -7.290538  -2.649808   1.409526
H  -6.601943  -4.372090   1.592767
H  -5.923932  -0.780993   0.989712
