%chk=/home/boittier/MDCM/nms_sampling/acrolein_geom.xyz.dir/acrolein_1702.chk
%nproc=8
%mem=16000MB
#p B2PLYPD3/Def2QZVP 

acrolein

0 1
C  -5.010650  -1.359724   0.898542
O  -3.924676  -0.887511   0.669104
C  -5.202638  -2.794758   1.114480
C  -6.399825  -3.329357   1.404598
H  -4.333311  -3.432035   1.117566
H  -7.227750  -2.708965   1.417598
H  -6.557691  -4.384923   1.745631
H  -6.005064  -0.773249   0.864961
