%chk=/home/boittier/MDCM/nms_sampling/acrolein_geom.xyz.dir/acrolein_332.chk
%nproc=8
%mem=16000MB
#p B2PLYPD3/Def2QZVP 

acrolein

0 1
C  -5.006678  -1.381923   0.862747
O  -3.939028  -0.871783   0.678989
C  -5.190044  -2.815009   1.136125
C  -6.397079  -3.316197   1.408889
H  -4.357801  -3.421338   1.085186
H  -7.245885  -2.659865   1.519398
H  -6.537720  -4.353789   1.602979
H  -5.977510  -0.758526   0.892453
