%chk=/home/boittier/MDCM/nms_sampling/acrolein_geom.xyz.dir/acrolein_1421.chk
%nproc=8
%mem=16000MB
#p B2PLYPD3/Def2QZVP 

acrolein

0 1
C  -4.999132  -1.377346   0.849942
O  -3.924603  -0.885597   0.693919
C  -5.215424  -2.783217   1.108749
C  -6.407272  -3.332790   1.417518
H  -4.298253  -3.385856   1.105183
H  -7.187448  -2.652267   1.506991
H  -6.588986  -4.392405   1.723843
H  -5.944681  -0.798109   0.902388

