%chk=/home/boittier/MDCM/nms_sampling/acrolein_geom.xyz.dir/acrolein_1588.chk
%nproc=8
%mem=16000MB
#p B2PLYPD3/Def2QZVP 

acrolein

0 1
C  -4.997429  -1.382923   0.854183
O  -3.932243  -0.854955   0.685808
C  -5.188705  -2.858653   1.130030
C  -6.414053  -3.299477   1.410948
H  -4.284822  -3.455772   1.074940
H  -7.350663  -2.660753   1.524506
H  -6.567211  -4.272242   1.645317
H  -5.965939  -0.757580   0.897669

