%chk=/home/boittier/MDCM/nms_sampling/acrolein_geom.xyz.dir/acrolein_634.chk
%nproc=8
%mem=16000MB
#p B2PLYPD3/Def2QZVP 

acrolein

0 1
C  -5.005421  -1.374804   0.914839
O  -3.927055  -0.873379   0.638230
C  -5.202670  -2.818566   1.152831
C  -6.408618  -3.311853   1.391415
H  -4.285572  -3.443390   1.200902
H  -7.263152  -2.683101   1.347888
H  -6.574585  -4.364347   1.552591
H  -5.926454  -0.789054   1.028887

