%chk=/home/boittier/MDCM/nms_sampling/acrolein_geom.xyz.dir/acrolein_340.chk
%nproc=8
%mem=16000MB
#p B2PLYPD3/Def2QZVP 

acrolein

0 1
C  -5.008406  -1.375030   0.897856
O  -3.932773  -0.877657   0.653682
C  -5.191702  -2.811880   1.149693
C  -6.398442  -3.311283   1.401356
H  -4.333625  -3.443499   1.098125
H  -7.237731  -2.663481   1.352826
H  -6.622860  -4.424267   1.594042
H  -5.968341  -0.750352   0.972444

