%chk=/home/boittier/MDCM/nms_sampling/acrolein_geom.xyz.dir/acrolein_542.chk
%nproc=8
%mem=16000MB
#p B2PLYPD3/Def2QZVP 

acrolein

0 1
C  -5.006184  -1.379323   0.922027
O  -3.945232  -0.864471   0.638409
C  -5.180393  -2.837236   1.156984
C  -6.405220  -3.302436   1.382112
H  -4.310720  -3.456354   1.144622
H  -7.294924  -2.665724   1.372154
H  -6.553523  -4.332522   1.617465
H  -5.891248  -0.794706   0.975106
