%chk=/home/boittier/MDCM/nms_sampling/acrolein_geom.xyz.dir/acrolein_1206.chk
%nproc=8
%mem=16000MB
#p B2PLYPD3/Def2QZVP 

acrolein

0 1
C  -5.011613  -1.382063   0.929966
O  -3.936291  -0.874178   0.632913
C  -5.190639  -2.805913   1.147882
C  -6.407984  -3.315411   1.394670
H  -4.256252  -3.460474   1.196380
H  -7.252647  -2.681833   1.283001
H  -6.602769  -4.387693   1.569283
H  -5.865457  -0.764823   1.011486

