%chk=/home/boittier/MDCM/nms_sampling/acrolein_geom.xyz.dir/acrolein_276.chk
%nproc=8
%mem=16000MB
#p B2PLYPD3/Def2QZVP 

acrolein

0 1
C  -5.009099  -1.377442   0.915017
O  -3.928472  -0.875132   0.638435
C  -5.198383  -2.810703   1.167288
C  -6.396390  -3.315899   1.388207
H  -4.366643  -3.420217   1.107642
H  -7.246689  -2.663420   1.341383
H  -6.562111  -4.384924   1.556682
H  -5.993206  -0.780661   0.995019
