%chk=/home/boittier/MDCM/nms_sampling/acrolein_geom.xyz.dir/acrolein_960.chk
%nproc=8
%mem=16000MB
#p B2PLYPD3/Def2QZVP 

acrolein

0 1
C  -5.003461  -1.389732   0.877252
O  -3.945047  -0.853641   0.673694
C  -5.177272  -2.842168   1.127054
C  -6.410723  -3.312137   1.408952
H  -4.229207  -3.445480   1.145403
H  -7.338794  -2.644673   1.543715
H  -6.544203  -4.277722   1.578902
H  -5.953414  -0.773099   0.846006
