%chk=/home/boittier/MDCM/nms_sampling/acrolein_geom.xyz.dir/acrolein_2071.chk
%nproc=8
%mem=16000MB
#p B2PLYPD3/Def2QZVP 

acrolein

0 1
C  -4.984282  -1.405869   0.860850
O  -3.928342  -0.839526   0.706297
C  -5.163409  -2.850838   1.076432
C  -6.452015  -3.289920   1.425853
H  -4.269813  -3.503303   1.027546
H  -7.468236  -2.650068   1.409884
H  -6.624564  -4.333188   1.953972
H  -5.893735  -0.856358   0.824412
