%chk=/home/boittier/MDCM/nms_sampling/acrolein_geom.xyz.dir/acrolein_26.chk
%nproc=8
%mem=16000MB
#p B2PLYPD3/Def2QZVP 

acrolein

0 1
C  -5.011909  -1.369570   0.867557
O  -3.939691  -0.876437   0.679080
C  -5.192275  -2.818468   1.130218
C  -6.393455  -3.313877   1.422369
H  -4.318239  -3.450941   1.078783
H  -7.251324  -2.639856   1.483064
H  -6.572712  -4.377950   1.546746
H  -5.919318  -0.788343   0.847037
