%chk=/home/boittier/MDCM/nms_sampling/acrolein_geom.xyz.dir/acrolein_905.chk
%nproc=8
%mem=16000MB
#p B2PLYPD3/Def2QZVP 

acrolein

0 1
C  -5.004050  -1.383238   0.867450
O  -3.941747  -0.872544   0.690479
C  -5.180857  -2.801482   1.120299
C  -6.405478  -3.319464   1.423609
H  -4.267412  -3.431481   1.005989
H  -7.271935  -2.646965   1.545588
H  -6.633514  -4.426792   1.621213
H  -5.949149  -0.805190   0.715402

