%chk=/home/boittier/MDCM/nms_sampling/acrolein_geom.xyz.dir/acrolein_484.chk
%nproc=8
%mem=16000MB
#p B2PLYPD3/Def2QZVP 

acrolein

0 1
C  -5.002166  -1.388336   0.899579
O  -3.940341  -0.859365   0.653803
C  -5.179476  -2.838762   1.156008
C  -6.409312  -3.299394   1.390758
H  -4.324135  -3.471509   1.080242
H  -7.318691  -2.661601   1.428007
H  -6.573028  -4.337772   1.610001
H  -5.927251  -0.769781   0.926735
