%chk=/home/boittier/MDCM/nms_sampling/acrolein_geom.xyz.dir/acrolein_913.chk
%nproc=8
%mem=16000MB
#p B2PLYPD3/Def2QZVP 

acrolein

0 1
C  -4.999156  -1.382311   0.879216
O  -3.928710  -0.885370   0.680755
C  -5.208775  -2.789575   1.127938
C  -6.409861  -3.319347   1.413503
H  -4.333103  -3.383246   1.031969
H  -7.230118  -2.677142   1.545336
H  -6.576545  -4.434759   1.614845
H  -5.864682  -0.756473   0.736460

