%chk=/home/boittier/MDCM/nms_sampling/acrolein_geom.xyz.dir/acrolein_443.chk
%nproc=8
%mem=16000MB
#p B2PLYPD3/Def2QZVP 

acrolein

0 1
C  -5.009428  -1.379551   0.910650
O  -3.939577  -0.876312   0.639744
C  -5.188739  -2.806918   1.156986
C  -6.398714  -3.310851   1.387206
H  -4.315974  -3.445775   1.184855
H  -7.189982  -2.677900   1.366058
H  -6.603006  -4.424555   1.569493
H  -5.963298  -0.765533   1.036313
