%chk=/home/boittier/MDCM/nms_sampling/acrolein_geom.xyz.dir/acrolein_248.chk
%nproc=8
%mem=16000MB
#p B2PLYPD3/Def2QZVP 

acrolein

0 1
C  -5.015909  -1.376623   0.881894
O  -3.938025  -0.877245   0.667542
C  -5.194671  -2.803266   1.138002
C  -6.394935  -3.317584   1.411104
H  -4.274908  -3.428173   1.101766
H  -7.221523  -2.685125   1.450249
H  -6.581642  -4.404265   1.563809
H  -5.920541  -0.793030   0.891879
