%chk=/home/boittier/MDCM/nms_sampling/acrolein_geom.xyz.dir/acrolein_1050.chk
%nproc=8
%mem=16000MB
#p B2PLYPD3/Def2QZVP 

acrolein

0 1
C  -5.013997  -1.359639   0.915686
O  -3.926515  -0.880473   0.631049
C  -5.196728  -2.820048   1.172106
C  -6.405184  -3.318853   1.381835
H  -4.345981  -3.432470   1.181377
H  -7.224083  -2.680673   1.349746
H  -6.520340  -4.342477   1.517929
H  -5.964316  -0.770246   1.069013
