%chk=/home/boittier/MDCM/nms_sampling/acrolein_geom.xyz.dir/acrolein_345.chk
%nproc=8
%mem=16000MB
#p B2PLYPD3/Def2QZVP 

acrolein

0 1
C  -5.012779  -1.376730   0.907722
O  -3.936457  -0.876518   0.644274
C  -5.185297  -2.809668   1.158130
C  -6.399876  -3.313814   1.396579
H  -4.323200  -3.425627   1.148657
H  -7.221680  -2.664688   1.408653
H  -6.588909  -4.429853   1.494760
H  -5.973756  -0.753970   0.946293

