%chk=/home/boittier/MDCM/nms_sampling/acrolein_geom.xyz.dir/acrolein_871.chk
%nproc=8
%mem=16000MB
#p B2PLYPD3/Def2QZVP 

acrolein

0 1
C  -5.003288  -1.377007   0.885207
O  -3.928507  -0.879761   0.673002
C  -5.204672  -2.800290   1.124442
C  -6.404049  -3.319643   1.409913
H  -4.312918  -3.432814   1.090565
H  -7.254159  -2.651119   1.453879
H  -6.600895  -4.400269   1.661713
H  -5.909383  -0.790276   0.854347

