%chk=/home/boittier/MDCM/nms_sampling/acrolein_geom.xyz.dir/acrolein_1675.chk
%nproc=8
%mem=16000MB
#p B2PLYPD3/Def2QZVP 

acrolein

0 1
C  -5.017450  -1.375704   0.907124
O  -3.936521  -0.880876   0.634857
C  -5.205422  -2.794652   1.164041
C  -6.391676  -3.324521   1.386441
H  -4.231109  -3.438728   1.203345
H  -7.176569  -2.671327   1.302851
H  -6.545148  -4.422564   1.556120
H  -5.962810  -0.748644   1.136723
