%chk=/home/boittier/MDCM/nms_sampling/acrolein_geom.xyz.dir/acrolein_99.chk
%nproc=8
%mem=16000MB
#p B2PLYPD3/Def2QZVP 

acrolein

0 1
C  -4.996681  -1.385619   0.871893
O  -3.934477  -0.865394   0.671676
C  -5.191947  -2.823877   1.132765
C  -6.411368  -3.311201   1.413715
H  -4.328297  -3.457034   1.116221
H  -7.332991  -2.654201   1.418501
H  -6.576321  -4.313750   1.599998
H  -5.895554  -0.797532   0.955833
