%chk=/home/boittier/MDCM/nms_sampling/acrolein_geom.xyz.dir/acrolein_1878.chk
%nproc=8
%mem=16000MB
#p B2PLYPD3/Def2QZVP 

acrolein

0 1
C  -5.001625  -1.390645   0.892016
O  -3.957569  -0.855658   0.656178
C  -5.172438  -2.820804   1.145059
C  -6.387568  -3.314650   1.406607
H  -4.311633  -3.489958   1.066579
H  -7.457081  -2.679737   1.217864
H  -6.520261  -4.306395   1.685776
H  -5.943959  -0.845921   1.076872

