%chk=/home/boittier/MDCM/nms_sampling/acrolein_geom.xyz.dir/acrolein_2534.chk
%nproc=8
%mem=16000MB
#p B2PLYPD3/Def2QZVP 

acrolein

0 1
C  -4.993257  -1.367486   0.988624
O  -3.921618  -0.872402   0.594178
C  -5.205338  -2.850676   1.164476
C  -6.433954  -3.290630   1.376224
H  -4.299629  -3.430851   1.243334
H  -7.143051  -2.669095   1.097378
H  -6.639785  -4.320238   1.573896
H  -5.852507  -0.823828   1.088249
