%chk=/home/boittier/MDCM/nms_sampling/acrolein_geom.xyz.dir/acrolein_1882.chk
%nproc=8
%mem=16000MB
#p B2PLYPD3/Def2QZVP 

acrolein

0 1
C  -4.999349  -1.423188   0.963624
O  -3.953111  -0.826103   0.612244
C  -5.154241  -2.870561   1.191104
C  -6.423196  -3.282891   1.360784
H  -4.317188  -3.539949   1.111053
H  -7.338308  -2.598997   1.446141
H  -6.491211  -4.252174   1.483774
H  -5.964187  -0.770413   0.839371
