%chk=/home/boittier/MDCM/nms_sampling/acrolein_geom.xyz.dir/acrolein_1912.chk
%nproc=8
%mem=16000MB
#p B2PLYPD3/Def2QZVP 

acrolein

0 1
C  -5.002923  -1.402737   0.949830
O  -3.948465  -0.860489   0.604541
C  -5.190058  -2.804009   1.231941
C  -6.405315  -3.318651   1.374107
H  -4.161322  -3.401624   0.991343
H  -7.222933  -2.693391   1.309001
H  -6.529537  -4.396978   1.295240
H  -6.017951  -0.771103   0.938829

