%chk=/home/boittier/MDCM/nms_sampling/acrolein_geom.xyz.dir/acrolein_523.chk
%nproc=8
%mem=16000MB
#p B2PLYPD3/Def2QZVP 

acrolein

0 1
C  -4.997812  -1.398365   0.921310
O  -3.941130  -0.856639   0.637394
C  -5.184291  -2.829574   1.153116
C  -6.411644  -3.298399   1.382686
H  -4.303423  -3.469001   1.191951
H  -7.259895  -2.666307   1.386888
H  -6.585749  -4.351770   1.596602
H  -5.948844  -0.803391   0.991944

