%chk=/home/boittier/MDCM/nms_sampling/acrolein_geom.xyz.dir/acrolein_501.chk
%nproc=8
%mem=16000MB
#p B2PLYPD3/Def2QZVP 

acrolein

0 1
C  -5.008625  -1.392373   0.894207
O  -3.941231  -0.857842   0.659203
C  -5.189883  -2.830673   1.149232
C  -6.402869  -3.309370   1.408315
H  -4.258212  -3.466396   1.074533
H  -7.295957  -2.640595   1.426677
H  -6.545058  -4.306245   1.524886
H  -5.906692  -0.793570   0.871239

