%chk=/home/boittier/MDCM/nms_sampling/acrolein_geom.xyz.dir/acrolein_1686.chk
%nproc=8
%mem=16000MB
#p B2PLYPD3/Def2QZVP 

acrolein

0 1
C  -4.992047  -1.395621   0.931894
O  -3.936991  -0.854483   0.622699
C  -5.193996  -2.851963   1.198173
C  -6.423017  -3.290850   1.357123
H  -4.268708  -3.485389   1.077866
H  -7.230954  -2.639952   1.408346
H  -6.594708  -4.289703   1.567490
H  -5.887051  -0.766233   0.996430
