%chk=/home/boittier/MDCM/nms_sampling/acrolein_geom.xyz.dir/acrolein_1086.chk
%nproc=8
%mem=16000MB
#p B2PLYPD3/Def2QZVP 

acrolein

0 1
C  -5.016073  -1.350063   0.862962
O  -3.926551  -0.892640   0.691094
C  -5.202183  -2.808698   1.106934
C  -6.390939  -3.319036   1.436877
H  -4.360183  -3.455015   1.051014
H  -7.248759  -2.690326   1.422782
H  -6.594908  -4.406640   1.639172
H  -5.930466  -0.727892   0.819389

