%chk=/home/boittier/MDCM/nms_sampling/acrolein_geom.xyz.dir/acrolein_2206.chk
%nproc=8
%mem=16000MB
#p B2PLYPD3/Def2QZVP 

acrolein

0 1
C  -4.994787  -1.387736   0.851930
O  -3.937298  -0.865950   0.695135
C  -5.182660  -2.818889   1.086143
C  -6.416459  -3.319835   1.425500
H  -4.355266  -3.420775   1.173191
H  -7.488205  -2.711381   1.410631
H  -6.502762  -4.276580   1.802574
H  -5.830057  -0.747192   0.980631
