%chk=/home/boittier/MDCM/nms_sampling/acrolein_geom.xyz.dir/acrolein_1400.chk
%nproc=8
%mem=16000MB
#p B2PLYPD3/Def2QZVP 

acrolein

0 1
C  -5.010131  -1.396292   0.908791
O  -3.938690  -0.869765   0.639957
C  -5.191848  -2.789501   1.168160
C  -6.388160  -3.321968   1.371876
H  -4.298779  -3.418826   1.147697
H  -7.276951  -2.673008   1.422066
H  -6.624835  -4.416881   1.623111
H  -5.976106  -0.807474   1.032237
