%chk=/home/boittier/MDCM/nms_sampling/acrolein_geom.xyz.dir/acrolein_2513.chk
%nproc=8
%mem=16000MB
#p B2PLYPD3/Def2QZVP 

acrolein

0 1
C  -5.016996  -1.358818   0.870116
O  -3.919239  -0.901201   0.701740
C  -5.222164  -2.767563   1.074169
C  -6.383770  -3.343533   1.428737
H  -4.340241  -3.335219   1.068522
H  -7.269149  -2.650893   1.442766
H  -6.593949  -4.456301   1.881564
H  -5.882958  -0.818782   0.773831

