%chk=/home/boittier/MDCM/nms_sampling/acrolein_geom.xyz.dir/acrolein_2595.chk
%nproc=8
%mem=16000MB
#p B2PLYPD3/Def2QZVP 

acrolein

0 1
C  -5.000298  -1.432803   0.943006
O  -3.960043  -0.831871   0.605600
C  -5.170421  -2.852698   1.241216
C  -6.393984  -3.284197   1.351348
H  -4.326586  -3.444538   0.978115
H  -7.390997  -2.641172   1.359892
H  -6.573298  -4.272223   1.415554
H  -5.855080  -0.823631   1.001758

