%chk=/home/boittier/MDCM/nms_sampling/acrolein_geom.xyz.dir/acrolein_2449.chk
%nproc=8
%mem=16000MB
#p B2PLYPD3/Def2QZVP 

acrolein

0 1
C  -5.029689  -1.340760   0.977297
O  -3.956041  -0.891158   0.602182
C  -5.157111  -2.809822   1.157267
C  -6.370102  -3.322798   1.352831
H  -4.388259  -3.402665   1.313603
H  -7.187929  -2.703879   1.286030
H  -6.598606  -4.451680   1.679889
H  -6.084864  -0.782014   1.079046
