%chk=/home/boittier/MDCM/nms_sampling/acrolein_geom.xyz.dir/acrolein_2139.chk
%nproc=8
%mem=16000MB
#p B2PLYPD3/Def2QZVP 

acrolein

0 1
C  -5.024534  -1.389625   0.900324
O  -3.940986  -0.892097   0.674243
C  -5.211387  -2.756941   1.107079
C  -6.372859  -3.324095   1.407163
H  -4.279556  -3.428758   1.103507
H  -7.135859  -2.724998   1.472213
H  -6.644918  -4.505030   1.750894
H  -5.849408  -0.741096   0.775854

