%chk=/home/boittier/MDCM/nms_sampling/acrolein_geom.xyz.dir/acrolein_1388.chk
%nproc=8
%mem=16000MB
#p B2PLYPD3/Def2QZVP 

acrolein

0 1
C  -4.997658  -1.413540   0.845802
O  -3.946472  -0.850812   0.692026
C  -5.191453  -2.826061   1.126926
C  -6.412463  -3.297488   1.431052
H  -4.294668  -3.469564   1.044761
H  -7.202523  -2.620897   1.505496
H  -6.549723  -4.316493   1.548189
H  -5.867904  -0.848460   0.847930
