%chk=/home/boittier/MDCM/nms_sampling/acrolein_geom.xyz.dir/acrolein_1606.chk
%nproc=8
%mem=16000MB
#p B2PLYPD3/Def2QZVP 

acrolein

0 1
C  -4.992506  -1.417982   0.935485
O  -3.943898  -0.848950   0.619593
C  -5.194389  -2.821249   1.167855
C  -6.406541  -3.303790   1.361382
H  -4.253077  -3.466116   1.275001
H  -7.290639  -2.649057   1.387591
H  -6.579622  -4.325312   1.589155
H  -5.944299  -0.790589   1.095667

