%chk=/home/boittier/MDCM/nms_sampling/acrolein_geom.xyz.dir/acrolein_1945.chk
%nproc=8
%mem=16000MB
#p B2PLYPD3/Def2QZVP 

acrolein

0 1
C  -4.970334  -1.432779   0.846956
O  -3.912486  -0.831003   0.712849
C  -5.209964  -2.839409   1.094561
C  -6.453015  -3.292087   1.471368
H  -4.244395  -3.500460   0.928197
H  -7.432999  -2.630913   1.468290
H  -6.531819  -4.284161   1.531671
H  -5.917943  -0.861368   0.602727
