%chk=/home/boittier/MDCM/nms_sampling/acrolein_geom.xyz.dir/acrolein_2574.chk
%nproc=8
%mem=16000MB
#p B2PLYPD3/Def2QZVP 

acrolein

0 1
C  -4.985618  -1.411934   0.847112
O  -3.923878  -0.860251   0.717489
C  -5.213750  -2.804755   1.048335
C  -6.423234  -3.297806   1.470065
H  -4.295708  -3.476406   1.078492
H  -7.335099  -2.677129   1.321266
H  -6.619101  -4.391141   1.808557
H  -5.802887  -0.853236   0.802776
