%chk=/home/boittier/MDCM/nms_sampling/acrolein_geom.xyz.dir/acrolein_1518.chk
%nproc=8
%mem=16000MB
#p B2PLYPD3/Def2QZVP 

acrolein

0 1
C  -5.005452  -1.365482   0.933829
O  -3.928292  -0.888218   0.620207
C  -5.205834  -2.807587   1.185731
C  -6.401822  -3.307799   1.359901
H  -4.338481  -3.417898   1.208001
H  -7.207056  -2.682475   1.483303
H  -6.615674  -4.461209   1.487019
H  -5.899204  -0.757102   0.987560
