%chk=/home/boittier/MDCM/nms_sampling/acrolein_geom.xyz.dir/acrolein_1734.chk
%nproc=8
%mem=16000MB
#p B2PLYPD3/Def2QZVP 

acrolein

0 1
C  -5.007212  -1.387809   0.941505
O  -3.946858  -0.878641   0.620942
C  -5.189438  -2.788317   1.193491
C  -6.393965  -3.321494   1.361457
H  -4.327898  -3.427919   1.100320
H  -7.230563  -2.642829   1.459963
H  -6.588865  -4.424013   1.501954
H  -5.883711  -0.784699   0.904130
