%chk=/home/boittier/MDCM/nms_sampling/acrolein_geom.xyz.dir/acrolein_1418.chk
%nproc=8
%mem=16000MB
#p B2PLYPD3/Def2QZVP 

acrolein

0 1
C  -4.995085  -1.387974   0.858576
O  -3.932044  -0.860716   0.680816
C  -5.200332  -2.835004   1.140548
C  -6.423110  -3.295529   1.403025
H  -4.224300  -3.496457   1.065974
H  -7.309187  -2.667499   1.544661
H  -6.585164  -4.357571   1.630184
H  -5.843866  -0.813093   0.897024
