%chk=/home/boittier/MDCM/nms_sampling/acrolein_geom.xyz.dir/acrolein_287.chk
%nproc=8
%mem=16000MB
#p B2PLYPD3/Def2QZVP 

acrolein

0 1
C  -5.005701  -1.390124   0.883497
O  -3.942600  -0.858642   0.675246
C  -5.180224  -2.835758   1.116440
C  -6.406724  -3.303599   1.420074
H  -4.302297  -3.450234   1.092379
H  -7.271800  -2.653048   1.395188
H  -6.541347  -4.339828   1.663244
H  -5.966339  -0.771529   0.871514
