%chk=/home/boittier/MDCM/nms_sampling/acrolein_geom.xyz.dir/acrolein_1328.chk
%nproc=8
%mem=16000MB
#p B2PLYPD3/Def2QZVP 

acrolein

0 1
C  -5.006328  -1.365849   0.920291
O  -3.926184  -0.885897   0.636798
C  -5.210237  -2.796798   1.152568
C  -6.387912  -3.326469   1.372876
H  -4.378738  -3.431283   1.213148
H  -7.223206  -2.672545   1.397622
H  -6.588732  -4.370380   1.660724
H  -6.006890  -0.782865   1.036788

