%chk=/home/boittier/MDCM/nms_sampling/acrolein_geom.xyz.dir/acrolein_690.chk
%nproc=8
%mem=16000MB
#p B2PLYPD3/Def2QZVP 

acrolein

0 1
C  -4.998356  -1.383897   0.878122
O  -3.931765  -0.864921   0.671443
C  -5.193245  -2.828896   1.144235
C  -6.414907  -3.303506   1.406353
H  -4.275738  -3.445723   1.043692
H  -7.312559  -2.673868   1.482729
H  -6.593008  -4.370748   1.594189
H  -5.919727  -0.796892   0.857089

