%chk=/home/boittier/MDCM/nms_sampling/acrolein_geom.xyz.dir/acrolein_1176.chk
%nproc=8
%mem=16000MB
#p B2PLYPD3/Def2QZVP 

acrolein

0 1
C  -5.004618  -1.368428   0.926200
O  -3.917511  -0.885567   0.637905
C  -5.209327  -2.802698   1.149541
C  -6.405262  -3.318749   1.384067
H  -4.326322  -3.434597   1.172493
H  -7.173762  -2.668901   1.368879
H  -6.643500  -4.423495   1.623692
H  -6.016287  -0.727684   0.966287
