%chk=/home/boittier/MDCM/nms_sampling/acrolein_geom.xyz.dir/acrolein_2088.chk
%nproc=8
%mem=16000MB
#p B2PLYPD3/Def2QZVP 

acrolein

0 1
C  -4.994525  -1.386926   0.794443
O  -3.943630  -0.839977   0.733044
C  -5.156578  -2.870886   1.090705
C  -6.428461  -3.302716   1.463684
H  -4.201529  -3.476125   0.983394
H  -7.522258  -2.637927   1.543452
H  -6.584472  -4.245647   1.630643
H  -5.938825  -0.818390   0.797864

