%chk=/home/boittier/MDCM/nms_sampling/acrolein_geom.xyz.dir/acrolein_127.chk
%nproc=8
%mem=16000MB
#p B2PLYPD3/Def2QZVP 

acrolein

0 1
C  -5.011549  -1.372548   0.874151
O  -3.928814  -0.873993   0.677925
C  -5.190811  -2.816869   1.128760
C  -6.402816  -3.318606   1.422604
H  -4.303025  -3.451516   1.055918
H  -7.308119  -2.668374   1.453674
H  -6.594896  -4.362401   1.575038
H  -5.949660  -0.752093   0.830166

