%chk=/home/boittier/MDCM/nms_sampling/acrolein_geom.xyz.dir/acrolein_1751.chk
%nproc=8
%mem=16000MB
#p B2PLYPD3/Def2QZVP 

acrolein

0 1
C  -5.001601  -1.401364   0.861947
O  -3.948178  -0.856257   0.687242
C  -5.189090  -2.830001   1.097309
C  -6.410238  -3.298989   1.438015
H  -4.196952  -3.479938   1.173012
H  -7.275830  -2.640484   1.435163
H  -6.589447  -4.361518   1.598030
H  -5.842653  -0.783985   0.886041
