%chk=/home/boittier/MDCM/nms_sampling/acrolein_geom.xyz.dir/acrolein_1872.chk
%nproc=8
%mem=16000MB
#p B2PLYPD3/Def2QZVP 

acrolein

0 1
C  -5.008603  -1.364119   0.891219
O  -3.906665  -0.879004   0.642901
C  -5.215613  -2.825060   1.180812
C  -6.407763  -3.305770   1.388891
H  -4.353867  -3.427861   1.105774
H  -7.153304  -2.695173   1.373454
H  -6.641358  -4.375949   1.489557
H  -6.031206  -0.797502   1.069336
