%chk=/home/boittier/MDCM/nms_sampling/acrolein_geom.xyz.dir/acrolein_624.chk
%nproc=8
%mem=16000MB
#p B2PLYPD3/Def2QZVP 

acrolein

0 1
C  -5.006415  -1.391610   0.927365
O  -3.942186  -0.858214   0.635713
C  -5.176714  -2.831116   1.155383
C  -6.406827  -3.306391   1.379753
H  -4.288771  -3.437592   1.164927
H  -7.320066  -2.661185   1.376822
H  -6.583337  -4.341329   1.620413
H  -5.932161  -0.799365   0.971753

