%chk=/home/boittier/MDCM/nms_sampling/acrolein_geom.xyz.dir/acrolein_2441.chk
%nproc=8
%mem=16000MB
#p B2PLYPD3/Def2QZVP 

acrolein

0 1
C  -5.007558  -1.356531   0.947556
O  -3.926396  -0.902152   0.602641
C  -5.206026  -2.777052   1.238422
C  -6.410166  -3.334049   1.369371
H  -4.276287  -3.372000   0.987245
H  -7.222792  -2.699529   1.299823
H  -6.586707  -4.487325   1.303766
H  -5.882218  -0.710204   0.979134
