%chk=/home/boittier/MDCM/nms_sampling/acrolein_geom.xyz.dir/acrolein_575.chk
%nproc=8
%mem=16000MB
#p B2PLYPD3/Def2QZVP 

acrolein

0 1
C  -5.001867  -1.387441   0.908112
O  -3.926334  -0.870190   0.639379
C  -5.198397  -2.807845   1.170759
C  -6.408562  -3.315431   1.389192
H  -4.320643  -3.440630   1.144083
H  -7.288552  -2.642242   1.421230
H  -6.598354  -4.390151   1.469368
H  -5.946076  -0.789656   0.972456

