%chk=/home/boittier/MDCM/nms_sampling/acrolein_geom.xyz.dir/acrolein_275.chk
%nproc=8
%mem=16000MB
#p B2PLYPD3/Def2QZVP 

acrolein

0 1
C  -5.002529  -1.388849   0.874945
O  -3.935093  -0.860175   0.676872
C  -5.187761  -2.834506   1.125467
C  -6.411976  -3.303263   1.411349
H  -4.282255  -3.459275   1.067166
H  -7.347719  -2.668866   1.409167
H  -6.569966  -4.338508   1.702015
H  -5.899763  -0.772462   0.915869

