%chk=/home/boittier/MDCM/nms_sampling/acrolein_geom.xyz.dir/acrolein_1709.chk
%nproc=8
%mem=16000MB
#p B2PLYPD3/Def2QZVP 

acrolein

0 1
C  -4.994180  -1.399045   0.879660
O  -3.929976  -0.858930   0.683099
C  -5.190050  -2.833639   1.099253
C  -6.417095  -3.297882   1.435086
H  -4.349852  -3.434480   1.092279
H  -7.326535  -2.611694   1.359605
H  -6.606007  -4.374211   1.677515
H  -5.901263  -0.779229   0.843577
