%chk=/home/boittier/MDCM/nms_sampling/acrolein_geom.xyz.dir/acrolein_1098.chk
%nproc=8
%mem=16000MB
#p B2PLYPD3/Def2QZVP 

acrolein

0 1
C  -5.004389  -1.399472   0.897241
O  -3.945296  -0.850447   0.665662
C  -5.174129  -2.844217   1.123866
C  -6.416216  -3.291293   1.399658
H  -4.273385  -3.451062   1.116978
H  -7.242413  -2.652574   1.419659
H  -6.564353  -4.356193   1.726837
H  -5.933461  -0.824721   0.897687
