%chk=/home/boittier/MDCM/nms_sampling/acrolein_geom.xyz.dir/acrolein_2295.chk
%nproc=8
%mem=16000MB
#p B2PLYPD3/Def2QZVP 

acrolein

0 1
C  -4.983206  -1.399040   0.960657
O  -3.913051  -0.844129   0.598520
C  -5.216576  -2.864265   1.211127
C  -6.455247  -3.289231   1.332880
H  -4.134594  -3.470435   1.141507
H  -7.292619  -2.667505   1.311870
H  -6.607440  -4.214711   1.635693
H  -5.808318  -0.868653   1.131818
