%chk=/home/boittier/MDCM/nms_sampling/acrolein_geom.xyz.dir/acrolein_91.chk
%nproc=8
%mem=16000MB
#p B2PLYPD3/Def2QZVP 

acrolein

0 1
C  -5.003347  -1.391358   0.873974
O  -3.939101  -0.861772   0.672115
C  -5.185816  -2.834174   1.134809
C  -6.414823  -3.298022   1.417625
H  -4.293647  -3.441200   1.105128
H  -7.251032  -2.647574   1.462588
H  -6.579435  -4.364283   1.536098
H  -5.877688  -0.787057   0.885013

