%chk=/home/boittier/MDCM/nms_sampling/acrolein_geom.xyz.dir/acrolein_1001.chk
%nproc=8
%mem=16000MB
#p B2PLYPD3/Def2QZVP 

acrolein

0 1
C  -4.996155  -1.377652   0.868381
O  -3.932019  -0.861666   0.688238
C  -5.196503  -2.844639   1.100802
C  -6.418595  -3.306652   1.434175
H  -4.309247  -3.478153   1.081492
H  -7.312105  -2.633934   1.382341
H  -6.506547  -4.265812   1.690464
H  -5.910315  -0.796118   0.862490

