%chk=/home/boittier/MDCM/nms_sampling/acrolein_geom.xyz.dir/acrolein_439.chk
%nproc=8
%mem=16000MB
#p B2PLYPD3/Def2QZVP 

acrolein

0 1
C  -5.008761  -1.381409   0.904944
O  -3.939369  -0.872918   0.645294
C  -5.189444  -2.808256   1.155998
C  -6.397034  -3.320305   1.383326
H  -4.318507  -3.417377   1.162591
H  -7.258716  -2.666722   1.410744
H  -6.542231  -4.376508   1.610161
H  -5.980445  -0.760764   1.011568
