%chk=/home/boittier/MDCM/nms_sampling/acrolein_geom.xyz.dir/acrolein_1454.chk
%nproc=8
%mem=16000MB
#p B2PLYPD3/Def2QZVP 

acrolein

0 1
C  -5.010981  -1.370607   0.844359
O  -3.925394  -0.882124   0.692485
C  -5.189598  -2.808289   1.131213
C  -6.410073  -3.312654   1.422150
H  -4.350109  -3.412047   1.042116
H  -7.203585  -2.667445   1.558330
H  -6.594647  -4.462507   1.569597
H  -5.982582  -0.738519   0.838653
