%chk=/home/boittier/MDCM/nms_sampling/acrolein_geom.xyz.dir/acrolein_1407.chk
%nproc=8
%mem=16000MB
#p B2PLYPD3/Def2QZVP 

acrolein

0 1
C  -5.012571  -1.382139   0.916460
O  -3.932907  -0.878995   0.633146
C  -5.183148  -2.790598   1.166748
C  -6.403486  -3.322373   1.366059
H  -4.295838  -3.438304   1.199296
H  -7.235505  -2.680167   1.397214
H  -6.659234  -4.448263   1.641672
H  -5.964360  -0.743841   1.084796

