%chk=/home/boittier/MDCM/nms_sampling/acrolein_geom.xyz.dir/acrolein_1587.chk
%nproc=8
%mem=16000MB
#p B2PLYPD3/Def2QZVP 

acrolein

0 1
C  -4.985202  -1.411907   0.930966
O  -3.930072  -0.851326   0.625325
C  -5.200925  -2.839854   1.175360
C  -6.427170  -3.291152   1.377071
H  -4.333648  -3.445340   1.120843
H  -7.241592  -2.658709   1.257367
H  -6.589796  -4.280720   1.602239
H  -5.880066  -0.796012   1.075758
