%chk=/home/boittier/MDCM/nms_sampling/acrolein_geom.xyz.dir/acrolein_1067.chk
%nproc=8
%mem=16000MB
#p B2PLYPD3/Def2QZVP 

acrolein

0 1
C  -4.998374  -1.375958   0.884517
O  -3.926631  -0.884000   0.678733
C  -5.211601  -2.804154   1.105593
C  -6.403820  -3.304334   1.432222
H  -4.380592  -3.402437   1.082500
H  -7.220778  -2.695122   1.344184
H  -6.607249  -4.439184   1.666724
H  -5.874687  -0.809709   0.851005

