%chk=/home/boittier/MDCM/nms_sampling/acrolein_geom.xyz.dir/acrolein_1372.chk
%nproc=8
%mem=16000MB
#p B2PLYPD3/Def2QZVP 

acrolein

0 1
C  -4.996473  -1.406477   0.922084
O  -3.947553  -0.857028   0.627263
C  -5.195760  -2.815888   1.174260
C  -6.407627  -3.313049   1.384887
H  -4.250300  -3.420355   1.208869
H  -7.257526  -2.639868   1.402567
H  -6.537990  -4.303557   1.419922
H  -5.878172  -0.829244   1.005150
