%chk=/home/boittier/MDCM/nms_sampling/acrolein_geom.xyz.dir/acrolein_611.chk
%nproc=8
%mem=16000MB
#p B2PLYPD3/Def2QZVP 

acrolein

0 1
C  -4.998416  -1.391875   0.894013
O  -3.928069  -0.859553   0.664612
C  -5.194685  -2.827402   1.127456
C  -6.417346  -3.305723   1.402074
H  -4.269352  -3.465406   1.131107
H  -7.291114  -2.654300   1.428214
H  -6.603966  -4.344932   1.674683
H  -5.948749  -0.805596   0.908107

