%chk=/home/boittier/MDCM/nms_sampling/acrolein_geom.xyz.dir/acrolein_2164.chk
%nproc=8
%mem=16000MB
#p B2PLYPD3/Def2QZVP 

acrolein

0 1
C  -5.005840  -1.353998   0.892656
O  -3.917599  -0.894420   0.641604
C  -5.186046  -2.793526   1.195871
C  -6.396640  -3.330179   1.369189
H  -4.536635  -3.354202   1.117984
H  -7.281452  -2.688112   1.596505
H  -6.647060  -4.407219   1.423555
H  -6.045050  -0.791235   0.948752
