%chk=/home/boittier/MDCM/nms_sampling/acrolein_geom.xyz.dir/acrolein_1505.chk
%nproc=8
%mem=16000MB
#p B2PLYPD3/Def2QZVP 

acrolein

0 1
C  -5.007865  -1.399580   0.853387
O  -3.948212  -0.850778   0.693625
C  -5.167594  -2.838535   1.123843
C  -6.408327  -3.305244   1.417776
H  -4.269848  -3.477530   1.014303
H  -7.344768  -2.628274   1.540605
H  -6.579924  -4.310482   1.666920
H  -5.908085  -0.771698   0.806858
