%chk=/home/boittier/MDCM/nms_sampling/acrolein_geom.xyz.dir/acrolein_2114.chk
%nproc=8
%mem=16000MB
#p B2PLYPD3/Def2QZVP 

acrolein

0 1
C  -4.992564  -1.397802   0.948886
O  -3.929743  -0.859052   0.593200
C  -5.188092  -2.824735   1.235328
C  -6.431057  -3.306227   1.322177
H  -4.340322  -3.429116   1.199476
H  -7.407379  -2.655105   1.470261
H  -6.513438  -4.331058   1.460871
H  -5.817868  -0.815527   1.137551
