%chk=/home/boittier/MDCM/nms_sampling/acrolein_geom.xyz.dir/acrolein_731.chk
%nproc=8
%mem=16000MB
#p B2PLYPD3/Def2QZVP 

acrolein

0 1
C  -5.013453  -1.369039   0.870276
O  -3.930462  -0.880058   0.676305
C  -5.196106  -2.812378   1.140197
C  -6.402185  -3.317109   1.406447
H  -4.338373  -3.439166   1.049479
H  -7.202725  -2.675632   1.499894
H  -6.552638  -4.369881   1.619886
H  -5.946427  -0.749998   0.869688
