%chk=/home/boittier/MDCM/nms_sampling/acrolein_geom.xyz.dir/acrolein_1487.chk
%nproc=8
%mem=16000MB
#p B2PLYPD3/Def2QZVP 

acrolein

0 1
C  -5.026301  -1.363641   0.941643
O  -3.942224  -0.882599   0.617776
C  -5.180281  -2.803911   1.200184
C  -6.389981  -3.330869   1.357851
H  -4.286491  -3.393644   1.092121
H  -7.271268  -2.653701   1.432676
H  -6.556166  -4.394001   1.508266
H  -5.914336  -0.768147   0.945674

