%chk=/home/boittier/MDCM/nms_sampling/acrolein_geom.xyz.dir/acrolein_2434.chk
%nproc=8
%mem=16000MB
#p B2PLYPD3/Def2QZVP 

acrolein

0 1
C  -4.979039  -1.405635   0.881736
O  -3.916170  -0.854597   0.684879
C  -5.194971  -2.837025   1.121848
C  -6.435224  -3.282143   1.417683
H  -4.394271  -3.469648   1.005843
H  -7.311980  -2.597642   1.565217
H  -6.665571  -4.434289   1.624369
H  -5.943285  -0.827337   0.664816
