%chk=/home/boittier/MDCM/nms_sampling/acrolein_geom.xyz.dir/acrolein_360.chk
%nproc=8
%mem=16000MB
#p B2PLYPD3/Def2QZVP 

acrolein

0 1
C  -5.014515  -1.378644   0.884851
O  -3.941560  -0.876170   0.664243
C  -5.188742  -2.802078   1.148420
C  -6.392173  -3.322663   1.408920
H  -4.316132  -3.427745   1.063156
H  -7.265391  -2.671372   1.435408
H  -6.570873  -4.368417   1.545220
H  -5.909088  -0.787130   0.887240
