%chk=/home/boittier/MDCM/nms_sampling/acrolein_geom.xyz.dir/acrolein_710.chk
%nproc=8
%mem=16000MB
#p B2PLYPD3/Def2QZVP 

acrolein

0 1
C  -5.000556  -1.392389   0.874113
O  -3.937487  -0.860979   0.675938
C  -5.196295  -2.833182   1.125253
C  -6.409601  -3.298815   1.410720
H  -4.288326  -3.473221   1.124340
H  -7.247133  -2.665400   1.501560
H  -6.569986  -4.329379   1.619293
H  -5.899678  -0.777150   0.874420
