%chk=/home/boittier/MDCM/nms_sampling/acrolein_geom.xyz.dir/acrolein_1346.chk
%nproc=8
%mem=16000MB
#p B2PLYPD3/Def2QZVP 

acrolein

0 1
C  -5.018247  -1.369966   0.920373
O  -3.946778  -0.877435   0.627390
C  -5.183159  -2.813667   1.198035
C  -6.383753  -3.319933   1.375330
H  -4.331267  -3.449531   1.067830
H  -7.210514  -2.635488   1.388870
H  -6.558171  -4.380987   1.457623
H  -5.987809  -0.745286   0.985098
