%chk=/home/boittier/MDCM/nms_sampling/acrolein_geom.xyz.dir/acrolein_946.chk
%nproc=8
%mem=16000MB
#p B2PLYPD3/Def2QZVP 

acrolein

0 1
C  -5.015596  -1.387388   0.906510
O  -3.946868  -0.861096   0.636890
C  -5.182451  -2.839179   1.168507
C  -6.395517  -3.307154   1.378447
H  -4.309684  -3.425754   1.176849
H  -7.234813  -2.627811   1.364319
H  -6.533570  -4.300947   1.580429
H  -5.912259  -0.767742   1.094952
