%chk=/home/boittier/MDCM/nms_sampling/acrolein_geom.xyz.dir/acrolein_1025.chk
%nproc=8
%mem=16000MB
#p B2PLYPD3/Def2QZVP 

acrolein

0 1
C  -5.006078  -1.376068   0.865461
O  -3.918630  -0.881774   0.680751
C  -5.205815  -2.794025   1.143421
C  -6.404543  -3.319792   1.405140
H  -4.370105  -3.425785   0.999540
H  -7.212356  -2.669119   1.513037
H  -6.580755  -4.437972   1.647719
H  -6.014818  -0.777583   0.847215
