%chk=/home/boittier/MDCM/nms_sampling/acrolein_geom.xyz.dir/acrolein_471.chk
%nproc=8
%mem=16000MB
#p B2PLYPD3/Def2QZVP 

acrolein

0 1
C  -5.008059  -1.387397   0.909998
O  -3.934011  -0.875306   0.649166
C  -5.198892  -2.795449   1.146808
C  -6.401415  -3.322075   1.397279
H  -4.307698  -3.431938   1.126340
H  -7.214535  -2.661620   1.385183
H  -6.573211  -4.384172   1.587033
H  -5.934481  -0.770824   0.926578
