%chk=/home/boittier/MDCM/nms_sampling/acrolein_geom.xyz.dir/acrolein_1566.chk
%nproc=8
%mem=16000MB
#p B2PLYPD3/Def2QZVP 

acrolein

0 1
C  -4.986745  -1.415496   0.854571
O  -3.927526  -0.849395   0.691987
C  -5.194889  -2.834565   1.108025
C  -6.424876  -3.285241   1.433537
H  -4.335580  -3.486493   1.051020
H  -7.346402  -2.666744   1.360180
H  -6.611733  -4.365374   1.707058
H  -5.885386  -0.786289   0.926150
