%chk=/home/boittier/MDCM/nms_sampling/acrolein_geom.xyz.dir/acrolein_416.chk
%nproc=8
%mem=16000MB
#p B2PLYPD3/Def2QZVP 

acrolein

0 1
C  -5.005833  -1.386966   0.885581
O  -3.935290  -0.874283   0.657413
C  -5.191305  -2.796041   1.159372
C  -6.402941  -3.319861   1.390014
H  -4.313113  -3.403631   1.110536
H  -7.254673  -2.664825   1.489234
H  -6.584443  -4.426119   1.564181
H  -5.956845  -0.796876   0.951293

