%chk=/home/boittier/MDCM/nms_sampling/acrolein_geom.xyz.dir/acrolein_659.chk
%nproc=8
%mem=16000MB
#p B2PLYPD3/Def2QZVP 

acrolein

0 1
C  -5.000988  -1.380504   0.898610
O  -3.935781  -0.868126   0.654220
C  -5.192255  -2.822255   1.139038
C  -6.408326  -3.312265   1.392633
H  -4.330335  -3.456131   1.184279
H  -7.323638  -2.653574   1.434957
H  -6.539524  -4.330539   1.626285
H  -5.897911  -0.800516   0.973007

