%chk=/home/boittier/MDCM/nms_sampling/acrolein_geom.xyz.dir/acrolein_1555.chk
%nproc=8
%mem=16000MB
#p B2PLYPD3/Def2QZVP 

acrolein

0 1
C  -5.002641  -1.378961   0.848014
O  -3.931740  -0.856770   0.686438
C  -5.189597  -2.858793   1.130403
C  -6.421505  -3.300577   1.430106
H  -4.300253  -3.456116   1.080756
H  -7.293305  -2.630348   1.483572
H  -6.519722  -4.248336   1.514801
H  -5.892871  -0.805927   0.895375
