%chk=/home/boittier/MDCM/nms_sampling/acrolein_geom.xyz.dir/acrolein_302.chk
%nproc=8
%mem=16000MB
#p B2PLYPD3/Def2QZVP 

acrolein

0 1
C  -4.999913  -1.391162   0.875347
O  -3.927349  -0.860468   0.676735
C  -5.197161  -2.827050   1.113849
C  -6.417447  -3.306252   1.422582
H  -4.253044  -3.446277   1.139707
H  -7.285210  -2.661527   1.415914
H  -6.589979  -4.354110   1.628148
H  -5.948081  -0.802388   0.905815
