%chk=/home/boittier/MDCM/nms_sampling/acrolein_geom.xyz.dir/acrolein_1937.chk
%nproc=8
%mem=16000MB
#p B2PLYPD3/Def2QZVP 

acrolein

0 1
C  -5.019006  -1.370652   0.827201
O  -3.949857  -0.885514   0.695277
C  -5.185384  -2.776981   1.154580
C  -6.360024  -3.341583   1.405505
H  -4.360072  -3.343855   1.007755
H  -7.372155  -2.664211   1.685326
H  -6.506751  -4.475557   1.542214
H  -6.057516  -0.785495   0.847502

