%chk=/home/boittier/MDCM/nms_sampling/acrolein_geom.xyz.dir/acrolein_1178.chk
%nproc=8
%mem=16000MB
#p B2PLYPD3/Def2QZVP 

acrolein

0 1
C  -4.994049  -1.417348   0.924124
O  -3.942954  -0.846941   0.633733
C  -5.192271  -2.836448   1.149233
C  -6.410356  -3.286728   1.377365
H  -4.302053  -3.484690   1.246543
H  -7.243641  -2.632282   1.376366
H  -6.556073  -4.362171   1.625784
H  -5.934225  -0.791369   1.046695
