%chk=/home/boittier/MDCM/nms_sampling/acrolein_geom.xyz.dir/acrolein_468.chk
%nproc=8
%mem=16000MB
#p B2PLYPD3/Def2QZVP 

acrolein

0 1
C  -5.006528  -1.381242   0.885237
O  -3.932838  -0.866358   0.664641
C  -5.193230  -2.828690   1.136435
C  -6.405989  -3.308901   1.407424
H  -4.309138  -3.436275   1.102767
H  -7.276549  -2.667397   1.376451
H  -6.574596  -4.325704   1.636389
H  -5.923013  -0.797760   0.962687
