%chk=/home/boittier/MDCM/nms_sampling/acrolein_geom.xyz.dir/acrolein_853.chk
%nproc=8
%mem=16000MB
#p B2PLYPD3/Def2QZVP 

acrolein

0 1
C  -5.010585  -1.379071   0.869436
O  -3.938495  -0.872517   0.679190
C  -5.192466  -2.813613   1.135737
C  -6.391169  -3.315923   1.413152
H  -4.343545  -3.443311   1.032557
H  -7.245490  -2.660862   1.480166
H  -6.545939  -4.366872   1.618333
H  -5.988737  -0.765529   0.849023
