%chk=/home/boittier/MDCM/nms_sampling/acrolein_geom.xyz.dir/acrolein_910.chk
%nproc=8
%mem=16000MB
#p B2PLYPD3/Def2QZVP 

acrolein

0 1
C  -4.994869  -1.382589   0.859593
O  -3.932931  -0.865360   0.687857
C  -5.199286  -2.829290   1.106896
C  -6.422821  -3.308465   1.422900
H  -4.233646  -3.442671   1.143761
H  -7.267731  -2.673333   1.494324
H  -6.582294  -4.309553   1.653568
H  -5.874488  -0.815133   0.883922
