%chk=/home/boittier/MDCM/nms_sampling/acrolein_geom.xyz.dir/acrolein_1459.chk
%nproc=8
%mem=16000MB
#p B2PLYPD3/Def2QZVP 

acrolein

0 1
C  -4.985403  -1.403859   0.876964
O  -3.929651  -0.855857   0.678401
C  -5.191384  -2.826425   1.122810
C  -6.422865  -3.291751   1.410802
H  -4.339789  -3.475724   1.103843
H  -7.343079  -2.667208   1.536475
H  -6.627537  -4.388194   1.626011
H  -5.913289  -0.828967   0.810880
