%chk=/home/boittier/MDCM/nms_sampling/acrolein_geom.xyz.dir/acrolein_369.chk
%nproc=8
%mem=16000MB
#p B2PLYPD3/Def2QZVP 

acrolein

0 1
C  -5.005992  -1.375436   0.884452
O  -3.929971  -0.876946   0.672463
C  -5.204328  -2.806979   1.123765
C  -6.401530  -3.323006   1.409836
H  -4.314427  -3.444058   1.094767
H  -7.261087  -2.659255   1.426414
H  -6.542970  -4.346161   1.679466
H  -5.938982  -0.764618   0.886411

