%chk=/home/boittier/MDCM/nms_sampling/acrolein_geom.xyz.dir/acrolein_883.chk
%nproc=8
%mem=16000MB
#p B2PLYPD3/Def2QZVP 

acrolein

0 1
C  -5.001730  -1.401169   0.862160
O  -3.940057  -0.856333   0.679611
C  -5.186760  -2.824853   1.134007
C  -6.406759  -3.302618   1.417220
H  -4.293874  -3.436051   1.080758
H  -7.305263  -2.647113   1.490799
H  -6.565521  -4.374490   1.568107
H  -5.933550  -0.815544   0.885702
