%chk=/home/boittier/MDCM/nms_sampling/acrolein_geom.xyz.dir/acrolein_564.chk
%nproc=8
%mem=16000MB
#p B2PLYPD3/Def2QZVP 

acrolein

0 1
C  -4.995955  -1.403618   0.912937
O  -3.942775  -0.857581   0.638847
C  -5.193378  -2.826570   1.160943
C  -6.410217  -3.300203   1.378195
H  -4.300779  -3.444242   1.167224
H  -7.242890  -2.652945   1.380955
H  -6.551610  -4.338607   1.618447
H  -5.906155  -0.791887   1.038114

