%chk=/home/boittier/MDCM/nms_sampling/acrolein_geom.xyz.dir/acrolein_1425.chk
%nproc=8
%mem=16000MB
#p B2PLYPD3/Def2QZVP 

acrolein

0 1
C  -5.006948  -1.378131   0.920841
O  -3.937155  -0.860705   0.625744
C  -5.186658  -2.853455   1.186539
C  -6.408674  -3.294070   1.378314
H  -4.329823  -3.449207   1.181610
H  -7.351624  -2.647288   1.447476
H  -6.527541  -4.322741   1.392529
H  -5.848855  -0.808345   0.985954
