%chk=/home/boittier/MDCM/nms_sampling/acrolein_geom.xyz.dir/acrolein_1254.chk
%nproc=8
%mem=16000MB
#p B2PLYPD3/Def2QZVP 

acrolein

0 1
C  -5.005358  -1.375694   0.860688
O  -3.933667  -0.879348   0.689733
C  -5.193725  -2.802748   1.097271
C  -6.391509  -3.325816   1.432929
H  -4.406362  -3.422734   1.151283
H  -7.229972  -2.672444   1.449953
H  -6.575665  -4.339956   1.650042
H  -6.027425  -0.739818   0.879063
