%chk=/home/boittier/MDCM/nms_sampling/acrolein_geom.xyz.dir/acrolein_2270.chk
%nproc=8
%mem=16000MB
#p B2PLYPD3/Def2QZVP 

acrolein

0 1
C  -5.016251  -1.379761   0.833201
O  -3.940430  -0.881918   0.690854
C  -5.196748  -2.776961   1.158688
C  -6.364215  -3.342194   1.401065
H  -4.356848  -3.369719   1.014839
H  -7.268378  -2.684084   1.691316
H  -6.577585  -4.391448   1.533048
H  -6.089717  -0.771304   0.845355

