%chk=/home/boittier/MDCM/nms_sampling/acrolein_geom.xyz.dir/acrolein_2529.chk
%nproc=8
%mem=16000MB
#p B2PLYPD3/Def2QZVP 

acrolein

0 1
C  -5.014131  -1.366790   0.859911
O  -3.918124  -0.885141   0.696696
C  -5.207270  -2.801806   1.066911
C  -6.386547  -3.330951   1.423031
H  -4.465146  -3.355865   1.266350
H  -7.196846  -2.695245   1.513315
H  -6.573863  -4.303114   1.810683
H  -6.036183  -0.783196   0.904617

