%chk=/home/boittier/MDCM/nms_sampling/acrolein_geom.xyz.dir/acrolein_2085.chk
%nproc=8
%mem=16000MB
#p B2PLYPD3/Def2QZVP 

acrolein

0 1
C  -5.034405  -1.364596   0.833336
O  -3.936403  -0.889864   0.708966
C  -5.199354  -2.761778   1.130319
C  -6.358728  -3.352724   1.416142
H  -4.354393  -3.423530   0.893029
H  -7.241850  -2.700010   1.597101
H  -6.475097  -4.409708   1.732256
H  -6.103921  -0.779940   0.753443
