%chk=/home/boittier/MDCM/nms_sampling/acrolein_geom.xyz.dir/acrolein_1683.chk
%nproc=8
%mem=16000MB
#p B2PLYPD3/Def2QZVP 

acrolein

0 1
C  -5.016281  -1.377429   0.862851
O  -3.945247  -0.879770   0.690738
C  -5.186496  -2.801069   1.104373
C  -6.374990  -3.320300   1.434595
H  -4.396940  -3.408517   1.042368
H  -7.269151  -2.654324   1.351939
H  -6.544816  -4.427323   1.718299
H  -5.992548  -0.738782   0.887081
