%chk=/home/boittier/MDCM/nms_sampling/acrolein_geom.xyz.dir/acrolein_2375.chk
%nproc=8
%mem=16000MB
#p B2PLYPD3/Def2QZVP 

acrolein

0 1
C  -5.002113  -1.350033   0.976020
O  -3.919429  -0.897953   0.593978
C  -5.189853  -2.777807   1.232591
C  -6.418712  -3.332429   1.330917
H  -4.265644  -3.434386   1.066895
H  -7.227134  -2.623210   1.488399
H  -6.720579  -4.567323   1.447500
H  -6.017000  -0.794750   0.880269
