%chk=/home/boittier/MDCM/nms_sampling/acrolein_geom.xyz.dir/acrolein_2456.chk
%nproc=8
%mem=16000MB
#p B2PLYPD3/Def2QZVP 

acrolein

0 1
C  -5.050137  -1.344235   0.948579
O  -3.953040  -0.898295   0.611663
C  -5.172416  -2.802478   1.196496
C  -6.357151  -3.326016   1.344194
H  -4.420688  -3.371825   1.108919
H  -7.174813  -2.699788   1.305948
H  -6.504829  -4.438621   1.686062
H  -5.928593  -0.716362   1.099673

