%chk=/home/boittier/MDCM/nms_sampling/acrolein_geom.xyz.dir/acrolein_27.chk
%nproc=8
%mem=16000MB
#p B2PLYPD3/Def2QZVP 

acrolein

0 1
C  -5.003170  -1.400164   0.910392
O  -3.941120  -0.860522   0.642969
C  -5.187492  -2.818449   1.169186
C  -6.405378  -3.305773   1.389137
H  -4.288021  -3.440065   1.083095
H  -7.298906  -2.652245   1.401717
H  -6.570290  -4.385127   1.530982
H  -5.914291  -0.779920   0.935171

