%chk=/home/boittier/MDCM/nms_sampling/acrolein_geom.xyz.dir/acrolein_1823.chk
%nproc=8
%mem=16000MB
#p B2PLYPD3/Def2QZVP 

acrolein

0 1
C  -4.991294  -1.372819   0.895125
O  -3.924091  -0.899855   0.630617
C  -5.214528  -2.760794   1.197989
C  -6.416212  -3.330644   1.373813
H  -4.344608  -3.420025   1.173727
H  -7.274484  -2.730570   1.424480
H  -6.612295  -4.460131   1.417935
H  -5.810320  -0.741659   1.132977
