%chk=/home/boittier/MDCM/nms_sampling/acrolein_geom.xyz.dir/acrolein_222.chk
%nproc=8
%mem=16000MB
#p B2PLYPD3/Def2QZVP 

acrolein

0 1
C  -4.999313  -1.387085   0.897557
O  -3.933108  -0.860999   0.663492
C  -5.184064  -2.833160   1.127249
C  -6.414350  -3.302950   1.403528
H  -4.357360  -3.464782   1.117514
H  -7.329557  -2.660582   1.400740
H  -6.565343  -4.328018   1.682459
H  -5.927354  -0.799425   0.905209
