%chk=/home/boittier/MDCM/nms_sampling/acrolein_geom.xyz.dir/acrolein_1828.chk
%nproc=8
%mem=16000MB
#p B2PLYPD3/Def2QZVP 

acrolein

0 1
C  -5.014751  -1.388627   0.988266
O  -3.934880  -0.872643   0.587705
C  -5.192421  -2.780554   1.209535
C  -6.385641  -3.344862   1.357669
H  -4.324623  -3.357731   1.148560
H  -7.255736  -2.714487   1.298616
H  -6.577832  -4.296290   1.397563
H  -6.043011  -0.833649   0.949684

