%chk=/home/boittier/MDCM/nms_sampling/acrolein_geom.xyz.dir/acrolein_2689.chk
%nproc=8
%mem=16000MB
#p B2PLYPD3/Def2QZVP 

acrolein

0 1
C  -5.008566  -1.378221   0.895950
O  -3.952447  -0.857847   0.677751
C  -5.187087  -2.836471   1.088816
C  -6.398423  -3.323139   1.447290
H  -4.193824  -3.471735   1.091552
H  -7.324280  -2.614968   1.238029
H  -6.486577  -4.228650   1.681861
H  -5.910605  -0.835305   0.839427
