%chk=/home/boittier/MDCM/nms_sampling/acrolein_geom.xyz.dir/acrolein_268.chk
%nproc=8
%mem=16000MB
#p B2PLYPD3/Def2QZVP 

acrolein

0 1
C  -5.009320  -1.374009   0.904406
O  -3.936684  -0.876768   0.646971
C  -5.187277  -2.812842   1.167373
C  -6.400832  -3.312113   1.383575
H  -4.320888  -3.425133   1.088351
H  -7.220336  -2.666701   1.445339
H  -6.619744  -4.410162   1.571590
H  -5.949462  -0.788403   0.938241
