%chk=/home/boittier/MDCM/nms_sampling/acrolein_geom.xyz.dir/acrolein_239.chk
%nproc=8
%mem=16000MB
#p B2PLYPD3/Def2QZVP 

acrolein

0 1
C  -5.000229  -1.380511   0.903495
O  -3.932237  -0.863355   0.647279
C  -5.193088  -2.841645   1.166478
C  -6.416188  -3.304521   1.395230
H  -4.306144  -3.458422   1.072122
H  -7.289890  -2.652086   1.391010
H  -6.536690  -4.301779   1.524506
H  -5.919006  -0.762284   0.938137
