%chk=/home/boittier/MDCM/nms_sampling/acrolein_geom.xyz.dir/acrolein_1833.chk
%nproc=8
%mem=16000MB
#p B2PLYPD3/Def2QZVP 

acrolein

0 1
C  -5.036439  -1.368102   0.867552
O  -3.942194  -0.888678   0.686402
C  -5.209653  -2.783862   1.116005
C  -6.373842  -3.334715   1.400311
H  -4.160282  -3.382400   1.025048
H  -7.075240  -2.637056   1.396178
H  -6.572764  -4.454648   1.903793
H  -5.933216  -0.788296   0.954260

