%chk=/home/boittier/MDCM/nms_sampling/acrolein_geom.xyz.dir/acrolein_277.chk
%nproc=8
%mem=16000MB
#p B2PLYPD3/Def2QZVP 

acrolein

0 1
C  -5.003473  -1.392332   0.876196
O  -3.942462  -0.856878   0.671724
C  -5.180414  -2.832930   1.143646
C  -6.407064  -3.307387   1.415346
H  -4.261170  -3.472905   1.030768
H  -7.334465  -2.645377   1.426947
H  -6.579214  -4.330701   1.566951
H  -5.938577  -0.771017   0.874987

