%chk=/home/boittier/MDCM/nms_sampling/acrolein_geom.xyz.dir/acrolein_994.chk
%nproc=8
%mem=16000MB
#p B2PLYPD3/Def2QZVP 

acrolein

0 1
C  -5.005281  -1.389756   0.926528
O  -3.934808  -0.876507   0.632237
C  -5.202163  -2.792872   1.166320
C  -6.391301  -3.317542   1.367556
H  -4.365548  -3.439556   1.134512
H  -7.182584  -2.657107   1.334941
H  -6.561829  -4.424663   1.695027
H  -6.017192  -0.746913   1.051654

