%chk=/home/boittier/MDCM/nms_sampling/acrolein_geom.xyz.dir/acrolein_825.chk
%nproc=8
%mem=16000MB
#p B2PLYPD3/Def2QZVP 

acrolein

0 1
C  -4.998799  -1.403207   0.915283
O  -3.939260  -0.856426   0.636356
C  -5.183497  -2.822908   1.181038
C  -6.414556  -3.301479   1.377519
H  -4.296677  -3.462574   1.083123
H  -7.311672  -2.670721   1.415149
H  -6.585830  -4.358739   1.533453
H  -5.902563  -0.795151   0.961132

