%chk=/home/boittier/MDCM/nms_sampling/acrolein_geom.xyz.dir/acrolein_1142.chk
%nproc=8
%mem=16000MB
#p B2PLYPD3/Def2QZVP 

acrolein

0 1
C  -4.991451  -1.407166   0.927816
O  -3.940410  -0.848478   0.622653
C  -5.184991  -2.839926   1.182120
C  -6.416745  -3.296942   1.379301
H  -4.277547  -3.486474   1.196000
H  -7.277832  -2.651664   1.404983
H  -6.602170  -4.299856   1.412808
H  -5.963880  -0.778218   1.001583

