%chk=/home/boittier/MDCM/nms_sampling/acrolein_geom.xyz.dir/acrolein_7.chk
%nproc=8
%mem=16000MB
#p B2PLYPD3/Def2QZVP 

acrolein

0 1
C  -5.006335  -1.385793   0.868124
O  -3.939793  -0.875873   0.677819
C  -5.198033  -2.803789   1.124575
C  -6.393210  -3.314239   1.409540
H  -4.317200  -3.419039   1.113302
H  -7.235083  -2.668351   1.450902
H  -6.603180  -4.397843   1.678589
H  -5.909171  -0.768427   0.941869

