%chk=/home/boittier/MDCM/nms_sampling/acrolein_geom.xyz.dir/acrolein_426.chk
%nproc=8
%mem=16000MB
#p B2PLYPD3/Def2QZVP 

acrolein

0 1
C  -5.008080  -1.364989   0.891563
O  -3.930837  -0.879442   0.667775
C  -5.194122  -2.816974   1.122795
C  -6.403126  -3.316566   1.416705
H  -4.348279  -3.453555   1.102748
H  -7.247699  -2.678393   1.365958
H  -6.569504  -4.351519   1.643430
H  -5.949757  -0.763625   0.896818
