%chk=/home/boittier/MDCM/nms_sampling/acrolein_geom.xyz.dir/acrolein_734.chk
%nproc=8
%mem=16000MB
#p B2PLYPD3/Def2QZVP 

acrolein

0 1
C  -5.014695  -1.376767   0.920583
O  -3.935714  -0.878100   0.635502
C  -5.193115  -2.802693   1.175814
C  -6.395217  -3.319867   1.377977
H  -4.287822  -3.442165   1.105355
H  -7.247490  -2.669691   1.433274
H  -6.608227  -4.401388   1.528401
H  -5.921985  -0.760614   0.931360
