%chk=/home/boittier/MDCM/nms_sampling/acrolein_geom.xyz.dir/acrolein_725.chk
%nproc=8
%mem=16000MB
#p B2PLYPD3/Def2QZVP 

acrolein

0 1
C  -5.014282  -1.362812   0.871771
O  -3.930457  -0.882075   0.676726
C  -5.191872  -2.807851   1.138412
C  -6.401413  -3.323786   1.418651
H  -4.313513  -3.432130   1.021058
H  -7.266171  -2.683749   1.438256
H  -6.581661  -4.371158   1.582684
H  -5.933878  -0.777515   0.855087
