%chk=/home/boittier/MDCM/nms_sampling/acrolein_geom.xyz.dir/acrolein_1943.chk
%nproc=8
%mem=16000MB
#p B2PLYPD3/Def2QZVP 

acrolein

0 1
C  -5.024336  -1.392418   0.842839
O  -3.940363  -0.869478   0.713579
C  -5.192815  -2.798686   1.082861
C  -6.361155  -3.327395   1.428828
H  -4.410252  -3.447248   0.975238
H  -7.231371  -2.654712   1.387497
H  -6.552671  -4.330686   1.969659
H  -6.080338  -0.727417   0.873913

