%chk=/home/boittier/MDCM/nms_sampling/acrolein_geom.xyz.dir/acrolein_2396.chk
%nproc=8
%mem=16000MB
#p B2PLYPD3/Def2QZVP 

acrolein

0 1
C  -4.996655  -1.381795   0.950007
O  -3.922475  -0.853405   0.600364
C  -5.179156  -2.854370   1.211419
C  -6.426930  -3.313289   1.371710
H  -4.328281  -3.434504   1.223269
H  -7.393333  -2.677839   1.433499
H  -6.545826  -4.210901   1.211570
H  -6.028860  -0.747846   0.973654
