%chk=/home/boittier/MDCM/nms_sampling/acrolein_geom.xyz.dir/acrolein_2221.chk
%nproc=8
%mem=16000MB
#p B2PLYPD3/Def2QZVP 

acrolein

0 1
C  -5.000950  -1.398126   0.940601
O  -3.963199  -0.849342   0.601495
C  -5.170159  -2.851531   1.238818
C  -6.415662  -3.289902   1.362577
H  -4.194732  -3.502313   1.055575
H  -7.225136  -2.602966   1.341998
H  -6.594800  -4.313542   1.296417
H  -5.806342  -0.838588   1.041810

