%chk=/home/boittier/MDCM/nms_sampling/acrolein_geom.xyz.dir/acrolein_1663.chk
%nproc=8
%mem=16000MB
#p B2PLYPD3/Def2QZVP 

acrolein

0 1
C  -5.005664  -1.377438   0.919207
O  -3.937748  -0.886364   0.630458
C  -5.206746  -2.785390   1.178352
C  -6.394563  -3.323293   1.386081
H  -4.308030  -3.383175   1.174121
H  -7.223184  -2.669082   1.447712
H  -6.570289  -4.446730   1.390320
H  -5.883777  -0.800410   0.947430

