%chk=/home/boittier/MDCM/nms_sampling/acrolein_geom.xyz.dir/acrolein_510.chk
%nproc=8
%mem=16000MB
#p B2PLYPD3/Def2QZVP 

acrolein

0 1
C  -5.001988  -1.389939   0.891939
O  -3.943835  -0.860419   0.663874
C  -5.190358  -2.827885   1.141240
C  -6.402985  -3.310105   1.410564
H  -4.291344  -3.465416   1.071811
H  -7.279891  -2.660041   1.431966
H  -6.550657  -4.284181   1.561364
H  -5.914016  -0.807115   0.854425
