%chk=/home/boittier/MDCM/nms_sampling/acrolein_geom.xyz.dir/acrolein_1052.chk
%nproc=8
%mem=16000MB
#p B2PLYPD3/Def2QZVP 

acrolein

0 1
C  -5.008996  -1.372071   0.853180
O  -3.931423  -0.883172   0.693679
C  -5.200288  -2.788464   1.107931
C  -6.398526  -3.333366   1.427108
H  -4.345636  -3.429993   1.054668
H  -7.240865  -2.674215   1.406815
H  -6.520210  -4.366852   1.735198
H  -5.971807  -0.775923   0.912698

