%chk=/home/boittier/MDCM/nms_sampling/acrolein_geom.xyz.dir/acrolein_1935.chk
%nproc=8
%mem=16000MB
#p B2PLYPD3/Def2QZVP 

acrolein

0 1
C  -5.032174  -1.348346   0.859598
O  -3.952151  -0.890433   0.704793
C  -5.157755  -2.802129   1.067473
C  -6.375457  -3.323872   1.466665
H  -4.377156  -3.397359   1.089661
H  -7.200958  -2.710621   1.360270
H  -6.570816  -4.484522   1.661990
H  -6.076283  -0.748738   0.761879

