%chk=/home/boittier/MDCM/nms_sampling/acrolein_geom.xyz.dir/acrolein_2691.chk
%nproc=8
%mem=16000MB
#p B2PLYPD3/Def2QZVP 

acrolein

0 1
C  -5.021448  -1.336516   0.840417
O  -3.930256  -0.901439   0.714385
C  -5.215293  -2.797920   1.076217
C  -6.382693  -3.341651   1.454312
H  -4.302897  -3.389232   0.977211
H  -7.222976  -2.680319   1.290131
H  -6.472839  -4.366261   1.859013
H  -5.951305  -0.728600   0.876637

