%chk=/home/boittier/MDCM/nms_sampling/acrolein_geom.xyz.dir/acrolein_1923.chk
%nproc=8
%mem=16000MB
#p B2PLYPD3/Def2QZVP 

acrolein

0 1
C  -4.998663  -1.369440   0.829080
O  -3.924889  -0.890431   0.702382
C  -5.215882  -2.781670   1.119153
C  -6.398374  -3.341400   1.438377
H  -4.375529  -3.448171   1.077506
H  -7.256865  -2.704387   1.602328
H  -6.550674  -4.292935   1.492710
H  -5.947035  -0.708193   0.806517
