%chk=/home/boittier/MDCM/nms_sampling/acrolein_geom.xyz.dir/acrolein_1691.chk
%nproc=8
%mem=16000MB
#p B2PLYPD3/Def2QZVP 

acrolein

0 1
C  -5.029190  -1.357261   0.914429
O  -3.940612  -0.883907   0.632389
C  -5.187218  -2.811069   1.166157
C  -6.384858  -3.321875   1.365594
H  -4.330772  -3.414366   1.217500
H  -7.165213  -2.703403   1.380889
H  -6.527544  -4.367240   1.648121
H  -5.968461  -0.785592   1.123017

