%chk=/home/boittier/MDCM/nms_sampling/acrolein_geom.xyz.dir/acrolein_2269.chk
%nproc=8
%mem=16000MB
#p B2PLYPD3/Def2QZVP 

acrolein

0 1
C  -4.999623  -1.396508   0.955168
O  -3.926097  -0.842372   0.606320
C  -5.179815  -2.874254   1.198509
C  -6.424436  -3.300262   1.335818
H  -4.347368  -3.435780   1.151619
H  -7.335576  -2.611458   1.344525
H  -6.519593  -4.189232   1.678221
H  -6.010230  -0.738000   1.102156

