%chk=/home/boittier/MDCM/nms_sampling/acrolein_geom.xyz.dir/acrolein_1636.chk
%nproc=8
%mem=16000MB
#p B2PLYPD3/Def2QZVP 

acrolein

0 1
C  -5.014469  -1.383958   0.875680
O  -3.934855  -0.876162   0.675440
C  -5.196544  -2.792377   1.109031
C  -6.384374  -3.320165   1.427447
H  -4.349707  -3.430958   1.175558
H  -7.178002  -2.691045   1.393218
H  -6.599987  -4.407737   1.604788
H  -6.036659  -0.797810   0.929219

