%chk=/home/boittier/MDCM/nms_sampling/acrolein_geom.xyz.dir/acrolein_1803.chk
%nproc=8
%mem=16000MB
#p B2PLYPD3/Def2QZVP 

acrolein

0 1
C  -5.027735  -1.329572   0.819394
O  -3.915340  -0.907151   0.725800
C  -5.205209  -2.789525   1.095636
C  -6.400586  -3.348912   1.458874
H  -4.323064  -3.387316   0.892564
H  -7.239636  -2.763992   1.476510
H  -6.518915  -4.341738   1.696384
H  -5.943589  -0.684811   0.722236

