%chk=/home/boittier/MDCM/nms_sampling/acrolein_geom.xyz.dir/acrolein_2307.chk
%nproc=8
%mem=16000MB
#p B2PLYPD3/Def2QZVP 

acrolein

0 1
C  -5.011262  -1.407281   0.812117
O  -3.929716  -0.865561   0.725108
C  -5.200250  -2.792516   1.102924
C  -6.391425  -3.323072   1.439964
H  -4.275792  -3.381995   0.980060
H  -7.247736  -2.655658   1.676137
H  -6.631834  -4.408873   1.646607
H  -6.009950  -0.760053   0.701494
