%chk=/home/boittier/MDCM/nms_sampling/acrolein_geom.xyz.dir/acrolein_2613.chk
%nproc=8
%mem=16000MB
#p B2PLYPD3/Def2QZVP 

acrolein

0 1
C  -5.013640  -1.365429   0.811880
O  -3.933926  -0.889245   0.727674
C  -5.203577  -2.790442   1.058489
C  -6.397642  -3.334132   1.471343
H  -4.229850  -3.456779   1.087980
H  -7.166690  -2.669758   1.375786
H  -6.620446  -4.379728   1.758119
H  -5.933737  -0.704606   0.901637

