%chk=/home/boittier/MDCM/nms_sampling/acrolein_geom.xyz.dir/acrolein_2258.chk
%nproc=8
%mem=16000MB
#p B2PLYPD3/Def2QZVP 

acrolein

0 1
C  -5.010736  -1.353656   0.932339
O  -3.931293  -0.901266   0.631668
C  -5.201495  -2.770597   1.197281
C  -6.387338  -3.353775   1.370791
H  -4.403416  -3.397820   0.990974
H  -7.329871  -2.700636   1.491712
H  -6.544023  -4.332519   1.480591
H  -5.901322  -0.722939   0.797616
