%chk=/home/boittier/MDCM/nms_sampling/acrolein_geom.xyz.dir/acrolein_392.chk
%nproc=8
%mem=16000MB
#p B2PLYPD3/Def2QZVP 

acrolein

0 1
C  -5.008581  -1.381196   0.878370
O  -3.936506  -0.871826   0.671238
C  -5.193925  -2.811324   1.136076
C  -6.397738  -3.310972   1.408262
H  -4.303406  -3.447492   1.106505
H  -7.209362  -2.679897   1.512399
H  -6.582365  -4.399454   1.569269
H  -5.991308  -0.789165   0.856934
