%chk=/home/boittier/MDCM/nms_sampling/acrolein_geom.xyz.dir/acrolein_895.chk
%nproc=8
%mem=16000MB
#p B2PLYPD3/Def2QZVP 

acrolein

0 1
C  -5.008283  -1.364623   0.920271
O  -3.927579  -0.879750   0.638070
C  -5.197255  -2.815377   1.154031
C  -6.400514  -3.317397   1.383846
H  -4.339782  -3.445294   1.173958
H  -7.239943  -2.644858   1.365925
H  -6.586589  -4.388776   1.607286
H  -5.989026  -0.774770   0.999703

