%chk=/home/boittier/MDCM/nms_sampling/acrolein_geom.xyz.dir/acrolein_2317.chk
%nproc=8
%mem=16000MB
#p B2PLYPD3/Def2QZVP 

acrolein

0 1
C  -4.993691  -1.379881   0.833722
O  -3.919956  -0.897125   0.713871
C  -5.231072  -2.771200   1.088876
C  -6.396330  -3.326139   1.456900
H  -4.337328  -3.346320   0.976929
H  -7.261625  -2.711282   1.367766
H  -6.673359  -4.456613   1.726916
H  -5.839173  -0.736380   0.833737
