%chk=/home/boittier/MDCM/nms_sampling/acrolein_geom.xyz.dir/acrolein_309.chk
%nproc=8
%mem=16000MB
#p B2PLYPD3/Def2QZVP 

acrolein

0 1
C  -5.012447  -1.381952   0.916089
O  -3.936165  -0.874361   0.637352
C  -5.195935  -2.805564   1.166689
C  -6.395377  -3.317181   1.378934
H  -4.269027  -3.420565   1.170907
H  -7.213866  -2.686762   1.463188
H  -6.586006  -4.405406   1.523629
H  -5.981448  -0.757033   0.953648
