%chk=/home/boittier/MDCM/nms_sampling/acrolein_geom.xyz.dir/acrolein_1863.chk
%nproc=8
%mem=16000MB
#p B2PLYPD3/Def2QZVP 

acrolein

0 1
C  -4.971564  -1.414115   0.835099
O  -3.932388  -0.858271   0.717918
C  -5.191932  -2.815352   1.049254
C  -6.441909  -3.297684   1.450128
H  -4.296131  -3.387008   1.211476
H  -7.379910  -2.641798   1.514880
H  -6.585747  -4.445517   1.786464
H  -5.854293  -0.796543   0.835856

