%chk=/home/boittier/MDCM/nms_sampling/acrolein_geom.xyz.dir/acrolein_126.chk
%nproc=8
%mem=16000MB
#p B2PLYPD3/Def2QZVP 

acrolein

0 1
C  -5.006345  -1.378357   0.869594
O  -3.928469  -0.876041   0.674677
C  -5.198427  -2.805087   1.129249
C  -6.407996  -3.321231   1.413764
H  -4.277013  -3.440584   1.109635
H  -7.221024  -2.654051   1.422828
H  -6.595882  -4.390263   1.628873
H  -5.973291  -0.755698   0.950979
