%chk=/home/boittier/MDCM/nms_sampling/acrolein_geom.xyz.dir/acrolein_2442.chk
%nproc=8
%mem=16000MB
#p B2PLYPD3/Def2QZVP 

acrolein

0 1
C  -5.037622  -1.335352   0.949825
O  -3.957433  -0.900799   0.608044
C  -5.172778  -2.778217   1.190082
C  -6.374421  -3.344330   1.377388
H  -4.248176  -3.448805   1.142450
H  -7.206822  -2.701252   1.186311
H  -6.521081  -4.455768   1.493326
H  -5.945616  -0.789739   1.105206
