%chk=/home/boittier/MDCM/nms_sampling/acrolein_geom.xyz.dir/acrolein_1364.chk
%nproc=8
%mem=16000MB
#p B2PLYPD3/Def2QZVP 

acrolein

0 1
C  -4.985856  -1.396501   0.935964
O  -3.925770  -0.859593   0.626258
C  -5.197051  -2.834773   1.162480
C  -6.423545  -3.290408   1.385154
H  -4.358096  -3.431640   1.171781
H  -7.309639  -2.634526   1.289543
H  -6.586423  -4.411716   1.556594
H  -5.940721  -0.812884   1.017175

