%chk=/home/boittier/MDCM/nms_sampling/acrolein_geom.xyz.dir/acrolein_735.chk
%nproc=8
%mem=16000MB
#p B2PLYPD3/Def2QZVP 

acrolein

0 1
C  -5.002651  -1.394276   0.861726
O  -3.943683  -0.860442   0.681138
C  -5.189825  -2.828354   1.135038
C  -6.401281  -3.307258   1.413147
H  -4.293850  -3.444742   1.066143
H  -7.321336  -2.633094   1.516409
H  -6.558372  -4.330506   1.592585
H  -5.882917  -0.784492   0.867999
