%chk=/home/boittier/MDCM/nms_sampling/acrolein_geom.xyz.dir/acrolein_230.chk
%nproc=8
%mem=16000MB
#p B2PLYPD3/Def2QZVP 

acrolein

0 1
C  -5.006508  -1.395333   0.902665
O  -3.943205  -0.859294   0.648497
C  -5.190292  -2.826253   1.155758
C  -6.400514  -3.307968   1.398349
H  -4.299096  -3.447599   1.142526
H  -7.295648  -2.662000   1.435670
H  -6.524977  -4.312669   1.494686
H  -5.902701  -0.791055   0.925604
