%chk=/home/boittier/MDCM/nms_sampling/acrolein_geom.xyz.dir/acrolein_2162.chk
%nproc=8
%mem=16000MB
#p B2PLYPD3/Def2QZVP 

acrolein

0 1
C  -4.993257  -1.367953   0.989195
O  -3.938624  -0.858040   0.586109
C  -5.182309  -2.861347   1.193717
C  -6.437361  -3.299552   1.366551
H  -4.203950  -3.523790   1.183661
H  -7.431926  -2.683772   1.112955
H  -6.516552  -4.240855   1.498188
H  -5.781391  -0.810423   1.099175
