%chk=/home/boittier/MDCM/nms_sampling/acrolein_geom.xyz.dir/acrolein_926.chk
%nproc=8
%mem=16000MB
#p B2PLYPD3/Def2QZVP 

acrolein

0 1
C  -5.018218  -1.365141   0.849908
O  -3.947036  -0.883582   0.692324
C  -5.191603  -2.803646   1.107353
C  -6.383604  -3.325524   1.417882
H  -4.328721  -3.440243   1.113737
H  -7.172720  -2.649479   1.453531
H  -6.539425  -4.362997   1.751943
H  -5.943494  -0.773808   0.957535

