%chk=/home/boittier/MDCM/nms_sampling/acrolein_geom.xyz.dir/acrolein_2526.chk
%nproc=8
%mem=16000MB
#p B2PLYPD3/Def2QZVP 

acrolein

0 1
C  -5.013485  -1.344522   0.817532
O  -3.922318  -0.900733   0.720386
C  -5.213749  -2.788026   1.091807
C  -6.407187  -3.349368   1.469638
H  -4.265390  -3.370835   1.048234
H  -7.187528  -2.700811   1.589298
H  -6.471385  -4.356832   1.463025
H  -5.979371  -0.685395   0.692020

