%chk=/home/boittier/MDCM/nms_sampling/acrolein_geom.xyz.dir/acrolein_2468.chk
%nproc=8
%mem=16000MB
#p B2PLYPD3/Def2QZVP 

acrolein

0 1
C  -4.995018  -1.421735   0.963119
O  -3.955034  -0.829178   0.597387
C  -5.168207  -2.859769   1.171413
C  -6.407097  -3.294583   1.341428
H  -4.369441  -3.496149   1.399724
H  -7.337014  -2.575341   1.353797
H  -6.473027  -4.196737   1.607258
H  -5.972839  -0.852916   1.192643
