%chk=/home/boittier/MDCM/nms_sampling/acrolein_geom.xyz.dir/acrolein_1216.chk
%nproc=8
%mem=16000MB
#p B2PLYPD3/Def2QZVP 

acrolein

0 1
C  -5.007221  -1.382967   0.873298
O  -3.944141  -0.880944   0.668769
C  -5.199140  -2.789604   1.150289
C  -6.388472  -3.318016   1.393029
H  -4.341386  -3.434316   1.087257
H  -7.138562  -2.671910   1.523780
H  -6.601498  -4.406822   1.618515
H  -5.937782  -0.807958   0.925359
