%chk=/home/boittier/MDCM/nms_sampling/acrolein_geom.xyz.dir/acrolein_2069.chk
%nproc=8
%mem=16000MB
#p B2PLYPD3/Def2QZVP 

acrolein

0 1
C  -4.974173  -1.439267   0.903033
O  -3.944374  -0.827435   0.622454
C  -5.196658  -2.847095   1.219063
C  -6.427963  -3.286724   1.375803
H  -4.197257  -3.464028   1.130191
H  -7.389754  -2.641772   1.452021
H  -6.503024  -4.294953   1.268985
H  -5.928879  -0.827790   1.062621
