%chk=/home/boittier/MDCM/nms_sampling/acrolein_geom.xyz.dir/acrolein_2246.chk
%nproc=8
%mem=16000MB
#p B2PLYPD3/Def2QZVP 

acrolein

0 1
C  -5.033140  -1.340718   0.955921
O  -3.918004  -0.895308   0.594007
C  -5.201143  -2.804140   1.216670
C  -6.389227  -3.340182   1.330695
H  -4.295776  -3.450859   1.287774
H  -7.322492  -2.615573   1.531126
H  -6.562887  -4.398031   1.402973
H  -5.917454  -0.693682   1.062284
