%chk=/home/boittier/MDCM/nms_sampling/acrolein_geom.xyz.dir/acrolein_1360.chk
%nproc=8
%mem=16000MB
#p B2PLYPD3/Def2QZVP 

acrolein

0 1
C  -5.003689  -1.372663   0.926159
O  -3.931901  -0.876171   0.631687
C  -5.198177  -2.820110   1.177169
C  -6.403636  -3.317705   1.374610
H  -4.384739  -3.413399   1.127923
H  -7.257841  -2.658566   1.451638
H  -6.502269  -4.323354   1.511154
H  -5.949564  -0.754746   0.922992

