%chk=/home/boittier/MDCM/nms_sampling/acrolein_geom.xyz.dir/acrolein_1746.chk
%nproc=8
%mem=16000MB
#p B2PLYPD3/Def2QZVP 

acrolein

0 1
C  -5.005861  -1.387690   0.934869
O  -3.956254  -0.862320   0.623155
C  -5.176794  -2.837100   1.184554
C  -6.394326  -3.301876   1.380499
H  -4.365939  -3.426645   1.106548
H  -7.298726  -2.646847   1.332954
H  -6.513498  -4.314430   1.478570
H  -5.865375  -0.795440   0.975861
