%chk=/home/boittier/MDCM/nms_sampling/acrolein_geom.xyz.dir/acrolein_2431.chk
%nproc=8
%mem=16000MB
#p B2PLYPD3/Def2QZVP 

acrolein

0 1
C  -4.997441  -1.418293   0.814119
O  -3.951371  -0.863656   0.726904
C  -5.187612  -2.795581   1.119663
C  -6.395482  -3.304973   1.432435
H  -4.347928  -3.376059   0.831637
H  -7.142481  -2.721974   1.647114
H  -6.592589  -4.413039   1.720292
H  -5.997088  -0.754720   0.659975

