%chk=/home/boittier/MDCM/nms_sampling/acrolein_geom.xyz.dir/acrolein_566.chk
%nproc=8
%mem=16000MB
#p B2PLYPD3/Def2QZVP 

acrolein

0 1
C  -5.001930  -1.393663   0.916975
O  -3.943574  -0.859187   0.635636
C  -5.189288  -2.831396   1.160722
C  -6.401742  -3.305132   1.386706
H  -4.324086  -3.435342   1.193268
H  -7.268401  -2.658620   1.384323
H  -6.546257  -4.301441   1.522582
H  -5.924556  -0.807690   1.007032

