%chk=/home/boittier/MDCM/nms_sampling/acrolein_geom.xyz.dir/acrolein_2452.chk
%nproc=8
%mem=16000MB
#p B2PLYPD3/Def2QZVP 

acrolein

0 1
C  -5.009695  -1.400073   0.851054
O  -3.954148  -0.851775   0.700527
C  -5.165928  -2.822777   1.100214
C  -6.386569  -3.315048   1.451099
H  -4.294353  -3.421175   1.077556
H  -7.440318  -2.609740   1.550641
H  -6.571738  -4.365098   1.500404
H  -5.959485  -0.848428   0.700601

