%chk=/home/boittier/MDCM/nms_sampling/acrolein_geom.xyz.dir/acrolein_1010.chk
%nproc=8
%mem=16000MB
#p B2PLYPD3/Def2QZVP 

acrolein

0 1
C  -5.003975  -1.392222   0.922602
O  -3.927499  -0.873387   0.634793
C  -5.210305  -2.806429   1.164288
C  -6.400059  -3.310371   1.388593
H  -4.343452  -3.429580   1.102826
H  -7.191833  -2.659960   1.262639
H  -6.612523  -4.371912   1.604844
H  -5.913153  -0.765396   1.033044
