%chk=/home/boittier/MDCM/nms_sampling/acrolein_geom.xyz.dir/acrolein_608.chk
%nproc=8
%mem=16000MB
#p B2PLYPD3/Def2QZVP 

acrolein

0 1
C  -4.998788  -1.385672   0.919130
O  -3.931826  -0.865020   0.636327
C  -5.201362  -2.824118   1.164603
C  -6.408609  -3.312062   1.377329
H  -4.297770  -3.465160   1.135486
H  -7.320266  -2.671069   1.353108
H  -6.535834  -4.306886   1.629000
H  -5.922404  -0.772946   1.025228

