%chk=/home/boittier/MDCM/nms_sampling/acrolein_geom.xyz.dir/acrolein_2692.chk
%nproc=8
%mem=16000MB
#p B2PLYPD3/Def2QZVP 

acrolein

0 1
C  -5.023550  -1.385877   0.857060
O  -3.938779  -0.889939   0.707182
C  -5.179021  -2.763094   1.070257
C  -6.381550  -3.323122   1.435623
H  -4.391780  -3.363089   1.099777
H  -7.131070  -2.742863   1.474453
H  -6.673247  -4.547105   1.833823
H  -6.026415  -0.742076   0.786687
