%chk=/home/boittier/MDCM/nms_sampling/acrolein_geom.xyz.dir/acrolein_639.chk
%nproc=8
%mem=16000MB
#p B2PLYPD3/Def2QZVP 

acrolein

0 1
C  -5.012667  -1.366618   0.888906
O  -3.929228  -0.881704   0.661111
C  -5.198915  -2.811802   1.143768
C  -6.396654  -3.317155   1.401874
H  -4.355766  -3.415844   1.128019
H  -7.259491  -2.666553   1.472427
H  -6.562011  -4.388745   1.558645
H  -5.926052  -0.776114   0.904225
