%chk=/home/boittier/MDCM/nms_sampling/acrolein_geom.xyz.dir/acrolein_372.chk
%nproc=8
%mem=16000MB
#p B2PLYPD3/Def2QZVP 

acrolein

0 1
C  -5.002419  -1.381396   0.903164
O  -3.931257  -0.874061   0.648714
C  -5.197424  -2.805214   1.156495
C  -6.403882  -3.325218   1.393463
H  -4.328077  -3.428727   1.141050
H  -7.272560  -2.657930   1.456880
H  -6.556203  -4.343141   1.518771
H  -5.976224  -0.754477   0.920988
