%chk=/home/boittier/MDCM/nms_sampling/acrolein_geom.xyz.dir/acrolein_2657.chk
%nproc=8
%mem=16000MB
#p B2PLYPD3/Def2QZVP 

acrolein

0 1
C  -4.969950  -1.404905   0.927883
O  -3.917994  -0.838192   0.610782
C  -5.185672  -2.864586   1.208635
C  -6.461876  -3.286903   1.332327
H  -4.237852  -3.521728   1.228826
H  -7.364308  -2.647467   1.472893
H  -6.638718  -4.262863   1.564407
H  -5.970356  -0.813589   1.166905
