%chk=/home/boittier/MDCM/nms_sampling/acrolein_geom.xyz.dir/acrolein_939.chk
%nproc=8
%mem=16000MB
#p B2PLYPD3/Def2QZVP 

acrolein

0 1
C  -5.010582  -1.379825   0.917882
O  -3.946428  -0.864188   0.632054
C  -5.186322  -2.830799   1.182844
C  -6.398436  -3.310991   1.373504
H  -4.227942  -3.466309   1.146546
H  -7.320783  -2.664551   1.483477
H  -6.579835  -4.313941   1.467444
H  -5.867589  -0.798795   0.949406
