%chk=/home/boittier/MDCM/nms_sampling/acrolein_geom.xyz.dir/acrolein_1321.chk
%nproc=8
%mem=16000MB
#p B2PLYPD3/Def2QZVP 

acrolein

0 1
C  -5.002574  -1.380196   0.873690
O  -3.931725  -0.876199   0.689717
C  -5.196419  -2.811510   1.093684
C  -6.412468  -3.316067   1.423732
H  -4.257408  -3.403561   1.093031
H  -7.278613  -2.638439   1.426625
H  -6.610029  -4.418261   1.780553
H  -5.886711  -0.749031   0.837152

