%chk=/home/boittier/MDCM/nms_sampling/acrolein_geom.xyz.dir/acrolein_2635.chk
%nproc=8
%mem=16000MB
#p B2PLYPD3/Def2QZVP 

acrolein

0 1
C  -4.988306  -1.443395   0.836189
O  -3.956685  -0.831227   0.702677
C  -5.204043  -2.857700   1.105237
C  -6.400148  -3.272268   1.457458
H  -4.245773  -3.443717   1.104967
H  -7.203497  -2.645248   1.568134
H  -6.599696  -4.243442   1.412654
H  -5.818434  -0.823326   0.744618
