%chk=/home/boittier/MDCM/nms_sampling/acrolein_geom.xyz.dir/acrolein_1387.chk
%nproc=8
%mem=16000MB
#p B2PLYPD3/Def2QZVP 

acrolein

0 1
C  -5.021882  -1.356984   0.879468
O  -3.944393  -0.882025   0.669474
C  -5.188413  -2.821795   1.140883
C  -6.379470  -3.314249   1.417620
H  -4.340224  -3.468374   1.089165
H  -7.225307  -2.663010   1.494278
H  -6.574758  -4.365916   1.482229
H  -5.932499  -0.767978   0.828885

