%chk=/home/boittier/MDCM/nms_sampling/acrolein_geom.xyz.dir/acrolein_1860.chk
%nproc=8
%mem=16000MB
#p B2PLYPD3/Def2QZVP 

acrolein

0 1
C  -5.026657  -1.383507   0.953138
O  -3.946620  -0.873383   0.596586
C  -5.196513  -2.821888   1.221672
C  -6.379316  -3.304941   1.340861
H  -4.273670  -3.398973   1.244740
H  -7.055005  -2.708917   1.549283
H  -6.598734  -4.361438   1.314495
H  -5.949562  -0.738677   0.992225

