%chk=/home/boittier/MDCM/nms_sampling/acrolein_geom.xyz.dir/acrolein_310.chk
%nproc=8
%mem=16000MB
#p B2PLYPD3/Def2QZVP 

acrolein

0 1
C  -5.015480  -1.375279   0.914198
O  -3.936229  -0.876417   0.647780
C  -5.198731  -2.808979   1.143883
C  -6.393273  -3.320853   1.388787
H  -4.281913  -3.420337   1.144316
H  -7.239430  -2.679078   1.394849
H  -6.539465  -4.370025   1.649610
H  -5.944147  -0.759828   0.941978

