%chk=/home/boittier/MDCM/nms_sampling/acrolein_geom.xyz.dir/acrolein_1732.chk
%nproc=8
%mem=16000MB
#p B2PLYPD3/Def2QZVP 

acrolein

0 1
C  -5.008752  -1.361545   0.869285
O  -3.919154  -0.889005   0.688727
C  -5.205286  -2.800669   1.122656
C  -6.410814  -3.318789   1.422596
H  -4.349313  -3.444145   1.003758
H  -7.146238  -2.643097   1.539317
H  -6.611745  -4.430555   1.615981
H  -5.951865  -0.778042   0.719427

