%chk=/home/boittier/MDCM/nms_sampling/acrolein_geom.xyz.dir/acrolein_2662.chk
%nproc=8
%mem=16000MB
#p B2PLYPD3/Def2QZVP 

acrolein

0 1
C  -4.987923  -1.408518   0.968699
O  -3.922486  -0.868004   0.590984
C  -5.223127  -2.784939   1.223418
C  -6.414231  -3.318066   1.367341
H  -4.267006  -3.453975   1.150788
H  -7.218175  -2.629138   1.359971
H  -6.569069  -4.426882   1.228962
H  -5.976234  -0.784755   0.949672

