%chk=/home/boittier/MDCM/nms_sampling/acrolein_geom.xyz.dir/acrolein_1554.chk
%nproc=8
%mem=16000MB
#p B2PLYPD3/Def2QZVP 

acrolein

0 1
C  -4.991818  -1.398845   0.920620
O  -3.932772  -0.851071   0.633347
C  -5.186745  -2.849800   1.169917
C  -6.418499  -3.300645   1.367785
H  -4.372308  -3.445498   1.141150
H  -7.348943  -2.624888   1.363475
H  -6.543445  -4.250341   1.660259
H  -5.927995  -0.778690   1.055586
