%chk=/home/boittier/MDCM/nms_sampling/acrolein_geom.xyz.dir/acrolein_2386.chk
%nproc=8
%mem=16000MB
#p B2PLYPD3/Def2QZVP 

acrolein

0 1
C  -4.999731  -1.411238   0.905442
O  -3.957470  -0.831466   0.671222
C  -5.182591  -2.865047   1.098014
C  -6.413093  -3.290357   1.429097
H  -4.149083  -3.539928   1.103595
H  -7.331551  -2.615977   1.305019
H  -6.443638  -4.243968   1.709999
H  -5.910475  -0.825326   0.825580

