%chk=/home/boittier/MDCM/nms_sampling/acrolein_geom.xyz.dir/acrolein_148.chk
%nproc=8
%mem=16000MB
#p B2PLYPD3/Def2QZVP 

acrolein

0 1
C  -5.003500  -1.376897   0.903694
O  -3.926233  -0.873558   0.643390
C  -5.197163  -2.816449   1.168837
C  -6.412524  -3.311537   1.390025
H  -4.325713  -3.434574   1.127847
H  -7.223184  -2.664624   1.431681
H  -6.575064  -4.385257   1.489065
H  -5.972811  -0.783763   0.961807

