%chk=/home/boittier/MDCM/nms_sampling/acrolein_geom.xyz.dir/acrolein_347.chk
%nproc=8
%mem=16000MB
#p B2PLYPD3/Def2QZVP 

acrolein

0 1
C  -5.015533  -1.372066   0.877878
O  -3.935995  -0.874335   0.665722
C  -5.185866  -2.820518   1.139278
C  -6.392798  -3.312572   1.406613
H  -4.335611  -3.453293   1.127097
H  -7.275928  -2.666969   1.416986
H  -6.592760  -4.380692   1.598216
H  -5.959031  -0.750691   0.976710
