%chk=/home/boittier/MDCM/nms_sampling/acrolein_geom.xyz.dir/acrolein_2591.chk
%nproc=8
%mem=16000MB
#p B2PLYPD3/Def2QZVP 

acrolein

0 1
C  -5.003128  -1.405364   0.819339
O  -3.955328  -0.854828   0.723116
C  -5.178261  -2.819303   1.064816
C  -6.398437  -3.310678   1.437831
H  -4.241840  -3.402978   1.146614
H  -7.298812  -2.710073   1.554444
H  -6.514763  -4.346886   1.840173
H  -5.986583  -0.767642   0.875194
