%chk=/home/boittier/MDCM/nms_sampling/acrolein_geom.xyz.dir/acrolein_2325.chk
%nproc=8
%mem=16000MB
#p B2PLYPD3/Def2QZVP 

acrolein

0 1
C  -5.026474  -1.387052   0.942388
O  -3.957251  -0.884464   0.599287
C  -5.185827  -2.774303   1.230800
C  -6.373009  -3.334728   1.327410
H  -4.321691  -3.349164   1.180707
H  -7.233293  -2.687571   1.479393
H  -6.512017  -4.418610   1.467711
H  -5.854202  -0.754924   1.114807

