%chk=/home/boittier/MDCM/nms_sampling/acrolein_geom.xyz.dir/acrolein_227.chk
%nproc=8
%mem=16000MB
#p B2PLYPD3/Def2QZVP 

acrolein

0 1
C  -5.006816  -1.392490   0.864110
O  -3.939854  -0.861629   0.680530
C  -5.186788  -2.828922   1.137006
C  -6.405836  -3.301584   1.420462
H  -4.279157  -3.446177   1.022911
H  -7.270841  -2.657783   1.450685
H  -6.598126  -4.366902   1.582433
H  -5.898499  -0.784984   0.865631
