%chk=/home/boittier/MDCM/nms_sampling/acrolein_geom.xyz.dir/acrolein_1620.chk
%nproc=8
%mem=16000MB
#p B2PLYPD3/Def2QZVP 

acrolein

0 1
C  -4.990068  -1.398214   0.870836
O  -3.922993  -0.852751   0.680953
C  -5.189243  -2.852122   1.105946
C  -6.439568  -3.292586   1.410711
H  -4.286048  -3.443299   1.189730
H  -7.275832  -2.613082   1.506274
H  -6.605647  -4.333546   1.699550
H  -5.920449  -0.764400   0.906899
