%chk=/home/boittier/MDCM/nms_sampling/acrolein_geom.xyz.dir/acrolein_1295.chk
%nproc=8
%mem=16000MB
#p B2PLYPD3/Def2QZVP 

acrolein

0 1
C  -4.998514  -1.407349   0.932733
O  -3.953263  -0.846930   0.625893
C  -5.172777  -2.845441   1.156329
C  -6.399928  -3.297462   1.371656
H  -4.329326  -3.447915   1.274508
H  -7.362545  -2.628325   1.395005
H  -6.542437  -4.306673   1.581131
H  -5.937494  -0.775231   1.046270

