%chk=/home/boittier/MDCM/nms_sampling/acrolein_geom.xyz.dir/acrolein_965.chk
%nproc=8
%mem=16000MB
#p B2PLYPD3/Def2QZVP 

acrolein

0 1
C  -4.995480  -1.383894   0.841097
O  -3.934531  -0.864667   0.694245
C  -5.190144  -2.829776   1.130871
C  -6.418123  -3.310288   1.414251
H  -4.321741  -3.473020   1.052171
H  -7.400813  -2.683783   1.595006
H  -6.537945  -4.280363   1.615168
H  -5.837803  -0.762779   0.851970

