%chk=/home/boittier/MDCM/nms_sampling/acrolein_geom.xyz.dir/acrolein_2573.chk
%nproc=8
%mem=16000MB
#p B2PLYPD3/Def2QZVP 

acrolein

0 1
C  -5.006076  -1.353958   0.988371
O  -3.931005  -0.885468   0.597987
C  -5.189587  -2.829982   1.169927
C  -6.414409  -3.294331   1.344748
H  -4.349360  -3.423526   1.243792
H  -7.191874  -2.694485   1.303927
H  -6.617499  -4.463014   1.686306
H  -5.888757  -0.803328   1.012591
