%chk=/home/boittier/MDCM/nms_sampling/acrolein_geom.xyz.dir/acrolein_240.chk
%nproc=8
%mem=16000MB
#p B2PLYPD3/Def2QZVP 

acrolein

0 1
C  -5.006441  -1.368949   0.880439
O  -3.931182  -0.879934   0.675165
C  -5.194290  -2.808636   1.119567
C  -6.405643  -3.318397   1.423008
H  -4.318808  -3.443497   1.092468
H  -7.233279  -2.657024   1.397934
H  -6.597544  -4.392144   1.622913
H  -5.946645  -0.782386   0.873915
