%chk=/home/boittier/MDCM/nms_sampling/acrolein_geom.xyz.dir/acrolein_40.chk
%nproc=8
%mem=16000MB
#p B2PLYPD3/Def2QZVP 

acrolein

0 1
C  -4.997479  -1.395676   0.901442
O  -3.932474  -0.862565   0.652980
C  -5.195128  -2.822489   1.151148
C  -6.409545  -3.303195   1.388459
H  -4.331043  -3.425530   1.097729
H  -7.275470  -2.640039   1.396756
H  -6.590961  -4.379229   1.660635
H  -5.935289  -0.809659   0.965132
