%chk=/home/boittier/MDCM/nms_sampling/acrolein_geom.xyz.dir/acrolein_754.chk
%nproc=8
%mem=16000MB
#p B2PLYPD3/Def2QZVP 

acrolein

0 1
C  -5.006943  -1.383746   0.879529
O  -3.942632  -0.871818   0.671698
C  -5.185006  -2.807633   1.126941
C  -6.396817  -3.317313   1.406031
H  -4.337921  -3.439332   1.123073
H  -7.290323  -2.662667   1.451214
H  -6.552891  -4.381315   1.664715
H  -5.946099  -0.770034   0.920664

