%chk=/home/boittier/MDCM/nms_sampling/acrolein_geom.xyz.dir/acrolein_386.chk
%nproc=8
%mem=16000MB
#p B2PLYPD3/Def2QZVP 

acrolein

0 1
C  -5.009453  -1.376574   0.874122
O  -3.938484  -0.875268   0.674920
C  -5.195167  -2.810784   1.130945
C  -6.395358  -3.316964   1.418221
H  -4.338579  -3.438457   1.057889
H  -7.222797  -2.665369   1.389160
H  -6.536331  -4.361853   1.629351
H  -5.956946  -0.778854   0.913119

