%chk=/home/boittier/MDCM/nms_sampling/acrolein_geom.xyz.dir/acrolein_1996.chk
%nproc=8
%mem=16000MB
#p B2PLYPD3/Def2QZVP 

acrolein

0 1
C  -5.036693  -1.360872   0.858854
O  -3.936957  -0.895251   0.674288
C  -5.198264  -2.761684   1.112822
C  -6.350099  -3.347399   1.428076
H  -4.388425  -3.378770   1.225397
H  -7.306060  -2.746930   1.311374
H  -6.536357  -4.432227   1.611221
H  -6.025233  -0.789132   1.113272
