%chk=/home/boittier/MDCM/nms_sampling/acrolein_geom.xyz.dir/acrolein_1343.chk
%nproc=8
%mem=16000MB
#p B2PLYPD3/Def2QZVP 

acrolein

0 1
C  -4.990914  -1.401786   0.860086
O  -3.932532  -0.856065   0.690753
C  -5.191002  -2.834063   1.094786
C  -6.428761  -3.298495   1.419072
H  -4.283602  -3.478144   1.180927
H  -7.338525  -2.648822   1.512958
H  -6.619096  -4.305012   1.725166
H  -5.803225  -0.788471   0.890472

