%chk=/home/boittier/MDCM/nms_sampling/acrolein_geom.xyz.dir/acrolein_196.chk
%nproc=8
%mem=16000MB
#p B2PLYPD3/Def2QZVP 

acrolein

0 1
C  -5.013461  -1.377493   0.872143
O  -3.943187  -0.875957   0.679046
C  -5.190654  -2.802296   1.110847
C  -6.388028  -3.324503   1.425871
H  -4.312648  -3.436730   1.142715
H  -7.264645  -2.673784   1.415611
H  -6.565490  -4.352815   1.624275
H  -5.933041  -0.784069   0.904820

