%chk=/home/boittier/MDCM/nms_sampling/acrolein_geom.xyz.dir/acrolein_2278.chk
%nproc=8
%mem=16000MB
#p B2PLYPD3/Def2QZVP 

acrolein

0 1
C  -5.013712  -1.371749   0.896156
O  -3.943572  -0.899416   0.663820
C  -5.204627  -2.780459   1.147794
C  -6.374341  -3.311417   1.430808
H  -4.426484  -3.387255   0.999718
H  -7.101731  -2.690492   1.404117
H  -6.600891  -4.531932   1.414052
H  -5.910923  -0.713944   0.744924

