%chk=/home/boittier/MDCM/nms_sampling/acrolein_geom.xyz.dir/acrolein_2165.chk
%nproc=8
%mem=16000MB
#p B2PLYPD3/Def2QZVP 

acrolein

0 1
C  -5.003673  -1.416500   0.969228
O  -3.947004  -0.841913   0.587592
C  -5.170515  -2.849501   1.241184
C  -6.393091  -3.281933   1.329360
H  -4.403159  -3.444766   1.109466
H  -7.424019  -2.686377   1.412878
H  -6.567554  -4.343499   1.425206
H  -5.929828  -0.789757   1.028097

