%chk=/home/boittier/MDCM/nms_sampling/acrolein_geom.xyz.dir/acrolein_1299.chk
%nproc=8
%mem=16000MB
#p B2PLYPD3/Def2QZVP 

acrolein

0 1
C  -5.006535  -1.398891   0.929951
O  -3.942472  -0.859507   0.632805
C  -5.187505  -2.817568   1.165831
C  -6.394328  -3.310712   1.369355
H  -4.303208  -3.420769   1.125059
H  -7.346996  -2.666688   1.368345
H  -6.585268  -4.343758   1.666816
H  -5.907168  -0.818974   0.991762
