%chk=/home/boittier/MDCM/nms_sampling/acrolein_geom.xyz.dir/acrolein_1959.chk
%nproc=8
%mem=16000MB
#p B2PLYPD3/Def2QZVP 

acrolein

0 1
C  -4.982723  -1.395254   0.905681
O  -3.927246  -0.848510   0.630967
C  -5.186901  -2.846228   1.173335
C  -6.422026  -3.303526   1.384138
H  -4.336409  -3.521600   1.192349
H  -7.532148  -2.684849   1.261508
H  -6.543433  -4.251543   1.547225
H  -5.966597  -0.752081   1.194402

