%chk=/home/boittier/MDCM/nms_sampling/acrolein_geom.xyz.dir/acrolein_467.chk
%nproc=8
%mem=16000MB
#p B2PLYPD3/Def2QZVP 

acrolein

0 1
C  -5.000008  -1.389843   0.899997
O  -3.933142  -0.861081   0.648530
C  -5.193523  -2.838068   1.156796
C  -6.410306  -3.302768   1.393493
H  -4.346628  -3.452508   1.151739
H  -7.316094  -2.626561   1.439767
H  -6.556057  -4.307982   1.523317
H  -5.883901  -0.774916   0.958059
