%chk=/home/boittier/MDCM/nms_sampling/acrolein_geom.xyz.dir/acrolein_1146.chk
%nproc=8
%mem=16000MB
#p B2PLYPD3/Def2QZVP 

acrolein

0 1
C  -5.019565  -1.361492   0.923956
O  -3.929679  -0.884630   0.637327
C  -5.194800  -2.804687   1.170374
C  -6.401129  -3.331868   1.391713
H  -4.277421  -3.411484   1.078124
H  -7.228962  -2.660252   1.393080
H  -6.557177  -4.369098   1.486857
H  -5.944060  -0.739549   0.879339
