%chk=/home/boittier/MDCM/nms_sampling/acrolein_geom.xyz.dir/acrolein_1991.chk
%nproc=8
%mem=16000MB
#p B2PLYPD3/Def2QZVP 

acrolein

0 1
C  -5.020783  -1.360286   0.939257
O  -3.943230  -0.889571   0.637092
C  -5.176330  -2.785015   1.157164
C  -6.391541  -3.332715   1.379798
H  -4.218769  -3.375657   1.083578
H  -7.210899  -2.635642   1.406898
H  -6.665693  -4.540445   1.631483
H  -6.006270  -0.796975   0.837958
