%chk=/home/boittier/MDCM/nms_sampling/acrolein_geom.xyz.dir/acrolein_22.chk
%nproc=8
%mem=16000MB
#p B2PLYPD3/Def2QZVP 

acrolein

0 1
C  -5.005579  -1.380713   0.919955
O  -3.931106  -0.873748   0.637128
C  -5.188229  -2.814189   1.169781
C  -6.411731  -3.308257   1.390372
H  -4.325933  -3.445843   1.101084
H  -7.240262  -2.657601   1.381429
H  -6.604114  -4.423197   1.497949
H  -5.938360  -0.758447   0.927438
