%chk=/home/boittier/MDCM/nms_sampling/acrolein_geom.xyz.dir/acrolein_1094.chk
%nproc=8
%mem=16000MB
#p B2PLYPD3/Def2QZVP 

acrolein

0 1
C  -4.994215  -1.377381   0.865962
O  -3.925687  -0.869654   0.690246
C  -5.198663  -2.830613   1.087402
C  -6.424280  -3.305210   1.426699
H  -4.326242  -3.474206   1.180245
H  -7.213556  -2.622164   1.463325
H  -6.594492  -4.338669   1.727190
H  -5.923894  -0.792862   0.877770
