%chk=/home/boittier/MDCM/nms_sampling/acrolein_geom.xyz.dir/acrolein_214.chk
%nproc=8
%mem=16000MB
#p B2PLYPD3/Def2QZVP 

acrolein

0 1
C  -4.995152  -1.393261   0.862365
O  -3.937134  -0.860327   0.679761
C  -5.187914  -2.823432   1.134086
C  -6.414837  -3.308936   1.421002
H  -4.309053  -3.460982   1.060975
H  -7.350272  -2.646303   1.451757
H  -6.557921  -4.334131   1.571515
H  -5.902291  -0.804929   0.894083

