%chk=/home/boittier/MDCM/nms_sampling/acrolein_geom.xyz.dir/acrolein_1673.chk
%nproc=8
%mem=16000MB
#p B2PLYPD3/Def2QZVP 

acrolein

0 1
C  -4.991121  -1.385554   0.908098
O  -3.929400  -0.869362   0.633597
C  -5.204643  -2.827435   1.167303
C  -6.408743  -3.299475   1.385742
H  -4.376850  -3.447527   1.198743
H  -7.290877  -2.646814   1.309234
H  -6.618407  -4.348008   1.539031
H  -5.869139  -0.806463   1.130057

