%chk=/home/boittier/MDCM/nms_sampling/acrolein_geom.xyz.dir/acrolein_1510.chk
%nproc=8
%mem=16000MB
#p B2PLYPD3/Def2QZVP 

acrolein

0 1
C  -5.015800  -1.383320   0.861390
O  -3.940598  -0.877095   0.686651
C  -5.197354  -2.803627   1.138285
C  -6.397014  -3.311672   1.409728
H  -4.273185  -3.411170   0.985528
H  -7.125897  -2.712273   1.550012
H  -6.578716  -4.402305   1.641325
H  -5.918280  -0.769482   0.793285
