%chk=/home/boittier/MDCM/nms_sampling/acrolein_geom.xyz.dir/acrolein_272.chk
%nproc=8
%mem=16000MB
#p B2PLYPD3/Def2QZVP 

acrolein

0 1
C  -5.003846  -1.397539   0.868301
O  -3.937380  -0.864578   0.678766
C  -5.193599  -2.815690   1.126720
C  -6.399115  -3.307463   1.424234
H  -4.326120  -3.420868   1.096789
H  -7.240687  -2.642945   1.474926
H  -6.589386  -4.387625   1.543975
H  -5.959168  -0.776319   0.854169

