%chk=/home/boittier/MDCM/nms_sampling/acrolein_geom.xyz.dir/acrolein_2149.chk
%nproc=8
%mem=16000MB
#p B2PLYPD3/Def2QZVP 

acrolein

0 1
C  -5.003541  -1.416303   0.802188
O  -3.953268  -0.833039   0.722589
C  -5.172131  -2.860191   1.076693
C  -6.391483  -3.285901   1.464537
H  -4.364610  -3.438292   1.102623
H  -7.381416  -2.682254   1.378057
H  -6.476423  -4.263010   1.700896
H  -6.003213  -0.849994   0.996083

