%chk=/home/boittier/MDCM/nms_sampling/acrolein_geom.xyz.dir/acrolein_2011.chk
%nproc=8
%mem=16000MB
#p B2PLYPD3/Def2QZVP 

acrolein

0 1
C  -4.996069  -1.366320   0.826740
O  -3.923414  -0.861251   0.704680
C  -5.212993  -2.861554   1.094230
C  -6.418136  -3.313556   1.449666
H  -4.215899  -3.437011   1.104191
H  -7.405722  -2.641350   1.353218
H  -6.527845  -4.175942   1.677964
H  -5.848316  -0.809824   1.003354
