%chk=/home/boittier/MDCM/nms_sampling/acrolein_geom.xyz.dir/acrolein_348.chk
%nproc=8
%mem=16000MB
#p B2PLYPD3/Def2QZVP 

acrolein

0 1
C  -4.997214  -1.390445   0.885413
O  -3.936315  -0.862711   0.667191
C  -5.189634  -2.829150   1.140830
C  -6.417561  -3.306311   1.415355
H  -4.265209  -3.436586   1.065332
H  -7.309423  -2.639778   1.436804
H  -6.587712  -4.355184   1.538507
H  -5.887469  -0.776816   0.851984
