%chk=/home/boittier/MDCM/nms_sampling/acrolein_geom.xyz.dir/acrolein_243.chk
%nproc=8
%mem=16000MB
#p B2PLYPD3/Def2QZVP 

acrolein

0 1
C  -5.002913  -1.375658   0.910807
O  -3.932535  -0.867012   0.647370
C  -5.185794  -2.827178   1.156179
C  -6.412817  -3.311578   1.395526
H  -4.297858  -3.466400   1.098877
H  -7.339392  -2.668543   1.404579
H  -6.564079  -4.347502   1.549182
H  -5.945458  -0.787207   0.902519

