%chk=/home/boittier/MDCM/nms_sampling/acrolein_geom.xyz.dir/acrolein_1118.chk
%nproc=8
%mem=16000MB
#p B2PLYPD3/Def2QZVP 

acrolein

0 1
C  -5.009031  -1.396748   0.884058
O  -3.943912  -0.851694   0.669988
C  -5.189912  -2.850291   1.140693
C  -6.406429  -3.288632   1.396324
H  -4.262949  -3.489700   1.033251
H  -7.229798  -2.623492   1.435462
H  -6.538287  -4.329681   1.721149
H  -5.878141  -0.809494   0.904529

