%chk=/home/boittier/MDCM/nms_sampling/acrolein_geom.xyz.dir/acrolein_262.chk
%nproc=8
%mem=16000MB
#p B2PLYPD3/Def2QZVP 

acrolein

0 1
C  -4.992628  -1.395764   0.870805
O  -3.929708  -0.860335   0.679057
C  -5.202731  -2.825121   1.112152
C  -6.421520  -3.305115   1.423088
H  -4.276818  -3.460933   1.143413
H  -7.279409  -2.642761   1.419373
H  -6.559666  -4.332183   1.638371
H  -5.896319  -0.807438   0.918795

