%chk=/home/boittier/MDCM/nms_sampling/acrolein_geom.xyz.dir/acrolein_2311.chk
%nproc=8
%mem=16000MB
#p B2PLYPD3/Def2QZVP 

acrolein

0 1
C  -5.030237  -1.379949   0.992239
O  -3.944915  -0.886917   0.582190
C  -5.196840  -2.781415   1.222878
C  -6.386828  -3.315476   1.321553
H  -4.232120  -3.457391   1.161232
H  -7.109239  -2.653547   1.390909
H  -6.584144  -4.533606   1.540841
H  -5.851358  -0.746675   1.004497
