%chk=/home/boittier/MDCM/nms_sampling/acrolein_geom.xyz.dir/acrolein_1443.chk
%nproc=8
%mem=16000MB
#p B2PLYPD3/Def2QZVP 

acrolein

0 1
C  -5.005466  -1.396203   0.928993
O  -3.947174  -0.857021   0.636888
C  -5.180388  -2.832228   1.148774
C  -6.403773  -3.308871   1.392377
H  -4.301548  -3.465552   1.139089
H  -7.341609  -2.658076   1.278880
H  -6.559191  -4.266655   1.628036
H  -5.849723  -0.772738   0.986032

