%chk=/home/boittier/MDCM/nms_sampling/acrolein_geom.xyz.dir/acrolein_1339.chk
%nproc=8
%mem=16000MB
#p B2PLYPD3/Def2QZVP 

acrolein

0 1
C  -4.999810  -1.384550   0.867525
O  -3.930227  -0.855296   0.687530
C  -5.184542  -2.842681   1.112176
C  -6.415888  -3.305704   1.432997
H  -4.265795  -3.485810   1.064587
H  -7.423207  -2.647763   1.470854
H  -6.600964  -4.305826   1.593630
H  -5.918755  -0.811200   0.786294

