%chk=/home/boittier/MDCM/nms_sampling/acrolein_geom.xyz.dir/acrolein_84.chk
%nproc=8
%mem=16000MB
#p B2PLYPD3/Def2QZVP 

acrolein

0 1
C  -5.013454  -1.371018   0.866290
O  -3.942942  -0.875223   0.676579
C  -5.185530  -2.820673   1.133867
C  -6.392581  -3.313623   1.418804
H  -4.323817  -3.427368   1.094349
H  -7.234169  -2.659092   1.473193
H  -6.571448  -4.372886   1.548253
H  -5.948828  -0.775463   0.890895
