%chk=/home/boittier/MDCM/nms_sampling/acrolein_geom.xyz.dir/acrolein_984.chk
%nproc=8
%mem=16000MB
#p B2PLYPD3/Def2QZVP 

acrolein

0 1
C  -5.004086  -1.406126   0.911467
O  -3.942651  -0.856197   0.628930
C  -5.184907  -2.827320   1.190847
C  -6.403206  -3.297832   1.380683
H  -4.330463  -3.427958   1.144866
H  -7.280987  -2.659284   1.406489
H  -6.554896  -4.373064   1.410243
H  -5.921826  -0.774910   1.031196

