%chk=/home/boittier/MDCM/nms_sampling/acrolein_geom.xyz.dir/acrolein_640.chk
%nproc=8
%mem=16000MB
#p B2PLYPD3/Def2QZVP 

acrolein

0 1
C  -5.015955  -1.379136   0.877120
O  -3.938931  -0.873104   0.672725
C  -5.188224  -2.812818   1.129411
C  -6.396642  -3.313397   1.416767
H  -4.284320  -3.443561   1.072064
H  -7.251201  -2.654499   1.366532
H  -6.581722  -4.408167   1.647477
H  -5.921594  -0.770398   0.937412
