%chk=/home/boittier/MDCM/nms_sampling/acrolein_geom.xyz.dir/acrolein_927.chk
%nproc=8
%mem=16000MB
#p B2PLYPD3/Def2QZVP 

acrolein

0 1
C  -5.016726  -1.355218   0.942653
O  -3.927808  -0.889511   0.618442
C  -5.191544  -2.806883   1.191477
C  -6.400159  -3.323050   1.378338
H  -4.362726  -3.437090   1.092667
H  -7.267100  -2.702419   1.342250
H  -6.581528  -4.380836   1.443106
H  -5.912766  -0.725989   0.943124

