%chk=/home/boittier/MDCM/nms_sampling/acrolein_geom.xyz.dir/acrolein_491.chk
%nproc=8
%mem=16000MB
#p B2PLYPD3/Def2QZVP 

acrolein

0 1
C  -5.001725  -1.384183   0.917466
O  -3.931180  -0.866002   0.641814
C  -5.189392  -2.830363   1.150933
C  -6.417041  -3.301389   1.390824
H  -4.322087  -3.470394   1.147543
H  -7.282869  -2.656325   1.346384
H  -6.578418  -4.365073   1.604964
H  -5.900416  -0.767184   0.980089

