%chk=/home/boittier/MDCM/nms_sampling/acrolein_geom.xyz.dir/acrolein_1476.chk
%nproc=8
%mem=16000MB
#p B2PLYPD3/Def2QZVP 

acrolein

0 1
C  -4.999546  -1.386901   0.927668
O  -3.929545  -0.862675   0.625103
C  -5.205335  -2.828873   1.178812
C  -6.409316  -3.311449   1.384237
H  -4.271025  -3.477621   1.173277
H  -7.320224  -2.679407   1.382498
H  -6.530610  -4.284619   1.422722
H  -5.930048  -0.751706   0.984553
