%chk=/home/boittier/MDCM/nms_sampling/acrolein_geom.xyz.dir/acrolein_102.chk
%nproc=8
%mem=16000MB
#p B2PLYPD3/Def2QZVP 

acrolein

0 1
C  -5.004536  -1.381764   0.916820
O  -3.934141  -0.862563   0.635182
C  -5.191332  -2.833899   1.168111
C  -6.412805  -3.311058   1.388774
H  -4.266740  -3.449118   1.161122
H  -7.308285  -2.663572   1.396089
H  -6.552955  -4.293586   1.475535
H  -5.906372  -0.795042   0.973993

