%chk=/home/boittier/MDCM/nms_sampling/acrolein_geom.xyz.dir/acrolein_2210.chk
%nproc=8
%mem=16000MB
#p B2PLYPD3/Def2QZVP 

acrolein

0 1
C  -4.975412  -1.413246   0.948292
O  -3.943317  -0.841508   0.609037
C  -5.167406  -2.852511   1.185296
C  -6.429043  -3.285635   1.345537
H  -4.407767  -3.507304   1.318571
H  -7.456787  -2.677080   1.556884
H  -6.557915  -4.276961   1.461929
H  -5.921468  -0.766944   0.995344
