%chk=/home/boittier/MDCM/nms_sampling/acrolein_geom.xyz.dir/acrolein_187.chk
%nproc=8
%mem=16000MB
#p B2PLYPD3/Def2QZVP 

acrolein

0 1
C  -5.004252  -1.384369   0.865412
O  -3.932531  -0.865509   0.679005
C  -5.198534  -2.826774   1.123952
C  -6.403472  -3.308335   1.411016
H  -4.351322  -3.456100   1.120354
H  -7.281773  -2.646449   1.463404
H  -6.526622  -4.319023   1.663538
H  -5.923084  -0.800253   0.939304
