%chk=/home/boittier/MDCM/nms_sampling/acrolein_geom.xyz.dir/acrolein_108.chk
%nproc=8
%mem=16000MB
#p B2PLYPD3/Def2QZVP 

acrolein

0 1
C  -5.007676  -1.386358   0.900748
O  -3.940050  -0.865167   0.648948
C  -5.185556  -2.824230   1.158686
C  -6.410884  -3.306180   1.395869
H  -4.271400  -3.453526   1.131432
H  -7.260520  -2.654949   1.441693
H  -6.569962  -4.368708   1.504262
H  -5.885604  -0.794079   0.931767

