%chk=/home/boittier/MDCM/nms_sampling/acrolein_geom.xyz.dir/acrolein_861.chk
%nproc=8
%mem=16000MB
#p B2PLYPD3/Def2QZVP 

acrolein

0 1
C  -5.008806  -1.392449   0.874063
O  -3.943484  -0.858309   0.674050
C  -5.184055  -2.837929   1.133004
C  -6.403089  -3.297376   1.418554
H  -4.294729  -3.467860   1.092470
H  -7.293485  -2.649699   1.472060
H  -6.554540  -4.350334   1.544303
H  -5.888287  -0.776452   0.860330

