%chk=/home/boittier/MDCM/nms_sampling/acrolein_geom.xyz.dir/acrolein_2006.chk
%nproc=8
%mem=16000MB
#p B2PLYPD3/Def2QZVP 

acrolein

0 1
C  -5.023240  -1.379967   0.934928
O  -3.950350  -0.877163   0.621881
C  -5.177632  -2.782668   1.184642
C  -6.384321  -3.342263   1.381238
H  -4.230334  -3.365501   1.058286
H  -7.225131  -2.666454   1.176191
H  -6.525225  -4.426484   1.590034
H  -6.056129  -0.768409   1.088693
