%chk=/home/boittier/MDCM/nms_sampling/acrolein_geom.xyz.dir/acrolein_916.chk
%nproc=8
%mem=16000MB
#p B2PLYPD3/Def2QZVP 

acrolein

0 1
C  -5.018511  -1.384519   0.891843
O  -3.941035  -0.871609   0.663258
C  -5.195259  -2.802916   1.152004
C  -6.386729  -3.325283   1.402508
H  -4.292288  -3.449715   1.037789
H  -7.263430  -2.663040   1.484000
H  -6.525649  -4.339251   1.555054
H  -5.931949  -0.764321   0.822386

