%chk=/home/boittier/MDCM/nms_sampling/acrolein_geom.xyz.dir/acrolein_279.chk
%nproc=8
%mem=16000MB
#p B2PLYPD3/Def2QZVP 

acrolein

0 1
C  -5.009327  -1.391004   0.878683
O  -3.940719  -0.859401   0.676530
C  -5.191974  -2.832282   1.127810
C  -6.403314  -3.305786   1.424185
H  -4.247629  -3.451896   1.049843
H  -7.275731  -2.675474   1.437133
H  -6.546365  -4.315183   1.573581
H  -5.906736  -0.781539   0.817068

