%chk=/home/boittier/MDCM/nms_sampling/acrolein_geom.xyz.dir/acrolein_1026.chk
%nproc=8
%mem=16000MB
#p B2PLYPD3/Def2QZVP 

acrolein

0 1
C  -5.004031  -1.407118   0.850588
O  -3.944726  -0.846103   0.693020
C  -5.174412  -2.846457   1.114539
C  -6.410347  -3.287012   1.427159
H  -4.270349  -3.490163   1.097921
H  -7.314111  -2.665199   1.550381
H  -6.588060  -4.359323   1.589049
H  -5.931690  -0.777789   0.824288

