%chk=/home/boittier/MDCM/nms_sampling/acrolein_geom.xyz.dir/acrolein_1677.chk
%nproc=8
%mem=16000MB
#p B2PLYPD3/Def2QZVP 

acrolein

0 1
C  -5.014682  -1.351192   0.849518
O  -3.926262  -0.888743   0.691433
C  -5.208981  -2.818133   1.111281
C  -6.386160  -3.321723   1.415202
H  -4.360518  -3.419585   1.131284
H  -7.201534  -2.685148   1.517648
H  -6.571896  -4.340818   1.702353
H  -5.991760  -0.737647   0.924958
