%chk=/home/boittier/MDCM/nms_sampling/acrolein_geom.xyz.dir/acrolein_2097.chk
%nproc=8
%mem=16000MB
#p B2PLYPD3/Def2QZVP 

acrolein

0 1
C  -5.028833  -1.318251   0.851726
O  -3.910226  -0.906377   0.701674
C  -5.182097  -2.801834   1.116062
C  -6.394447  -3.333873   1.450767
H  -4.469553  -3.452011   0.950724
H  -7.236355  -2.691685   1.521141
H  -6.668336  -4.420128   1.507926
H  -6.047306  -0.761309   0.653169

