%chk=/home/boittier/MDCM/nms_sampling/acrolein_geom.xyz.dir/acrolein_770.chk
%nproc=8
%mem=16000MB
#p B2PLYPD3/Def2QZVP 

acrolein

0 1
C  -5.010582  -1.381547   0.886393
O  -3.936856  -0.874049   0.670871
C  -5.197175  -2.811148   1.122512
C  -6.394567  -3.310698   1.419757
H  -4.308098  -3.444506   1.095255
H  -7.191903  -2.679564   1.380468
H  -6.581742  -4.397096   1.627202
H  -5.971629  -0.758148   0.885581
