%chk=/home/boittier/MDCM/nms_sampling/acrolein_geom.xyz.dir/acrolein_1368.chk
%nproc=8
%mem=16000MB
#p B2PLYPD3/Def2QZVP 

acrolein

0 1
C  -5.015937  -1.374638   0.930902
O  -3.941047  -0.874341   0.625040
C  -5.179213  -2.811242   1.174517
C  -6.387346  -3.322393   1.374418
H  -4.377763  -3.394599   1.193206
H  -7.265195  -2.639983   1.409054
H  -6.564211  -4.378677   1.496302
H  -6.004419  -0.795820   0.991951

