%chk=/home/boittier/MDCM/nms_sampling/acrolein_geom.xyz.dir/acrolein_1590.chk
%nproc=8
%mem=16000MB
#p B2PLYPD3/Def2QZVP 

acrolein

0 1
C  -5.010616  -1.370282   0.881101
O  -3.923615  -0.881463   0.673737
C  -5.199544  -2.809808   1.138123
C  -6.410671  -3.309836   1.409188
H  -4.302015  -3.454200   1.055226
H  -7.215908  -2.660997   1.537557
H  -6.617495  -4.447202   1.567977
H  -5.910606  -0.759443   0.782899
