%chk=/home/boittier/MDCM/nms_sampling/acrolein_geom.xyz.dir/acrolein_2263.chk
%nproc=8
%mem=16000MB
#p B2PLYPD3/Def2QZVP 

acrolein

0 1
C  -5.027096  -1.346112   0.826469
O  -3.938672  -0.897885   0.714418
C  -5.169153  -2.787745   1.090332
C  -6.384213  -3.334288   1.462027
H  -4.364543  -3.454419   1.104363
H  -7.203583  -2.670483   1.619244
H  -6.618117  -4.498966   1.462139
H  -6.079831  -0.671747   0.696549
