%chk=/home/boittier/MDCM/nms_sampling/acrolein_geom.xyz.dir/acrolein_111.chk
%nproc=8
%mem=16000MB
#p B2PLYPD3/Def2QZVP 

acrolein

0 1
C  -5.003898  -1.390194   0.904845
O  -3.941877  -0.863828   0.641684
C  -5.188262  -2.818217   1.165410
C  -6.399963  -3.313113   1.390329
H  -4.295984  -3.445303   1.155706
H  -7.317452  -2.642331   1.406991
H  -6.557058  -4.358175   1.499386
H  -5.934556  -0.791398   0.996583
