%chk=/home/boittier/MDCM/nms_sampling/acrolein_geom.xyz.dir/acrolein_808.chk
%nproc=8
%mem=16000MB
#p B2PLYPD3/Def2QZVP 

acrolein

0 1
C  -5.011828  -1.368153   0.922303
O  -3.927284  -0.877794   0.637346
C  -5.193756  -2.809604   1.167914
C  -6.403486  -3.325359   1.381785
H  -4.306997  -3.423849   1.115725
H  -7.248295  -2.674797   1.428127
H  -6.574281  -4.359032   1.540556
H  -5.998309  -0.771012   0.913367

