%chk=/home/boittier/MDCM/nms_sampling/acrolein_geom.xyz.dir/acrolein_2387.chk
%nproc=8
%mem=16000MB
#p B2PLYPD3/Def2QZVP 

acrolein

0 1
C  -4.985942  -1.459468   0.824518
O  -3.951338  -0.818313   0.709182
C  -5.169621  -2.852769   1.088979
C  -6.426521  -3.271226   1.420008
H  -4.288145  -3.507272   1.166835
H  -7.229372  -2.655892   1.552732
H  -6.625521  -4.268242   1.806362
H  -5.938476  -0.799146   0.968278

