%chk=/home/boittier/MDCM/nms_sampling/acrolein_geom.xyz.dir/acrolein_154.chk
%nproc=8
%mem=16000MB
#p B2PLYPD3/Def2QZVP 

acrolein

0 1
C  -4.997158  -1.383541   0.903226
O  -3.933714  -0.864543   0.647461
C  -5.190370  -2.830063   1.161931
C  -6.420979  -3.304823   1.386430
H  -4.282136  -3.468384   1.132876
H  -7.315856  -2.645824   1.474931
H  -6.565651  -4.354088   1.537319
H  -5.881640  -0.793928   0.929990

