%chk=/home/boittier/MDCM/nms_sampling/acrolein_geom.xyz.dir/acrolein_1156.chk
%nproc=8
%mem=16000MB
#p B2PLYPD3/Def2QZVP 

acrolein

0 1
C  -4.994745  -1.392399   0.900901
O  -3.925957  -0.860571   0.662417
C  -5.193702  -2.834616   1.127315
C  -6.433588  -3.299638   1.397247
H  -4.247575  -3.474505   1.129260
H  -7.326240  -2.614703   1.437689
H  -6.611428  -4.368083   1.699306
H  -5.825855  -0.778109   0.888513
