%chk=/home/boittier/MDCM/nms_sampling/acrolein_geom.xyz.dir/acrolein_2126.chk
%nproc=8
%mem=16000MB
#p B2PLYPD3/Def2QZVP 

acrolein

0 1
C  -4.993779  -1.437156   0.832729
O  -3.946436  -0.837305   0.707650
C  -5.203150  -2.837456   1.138344
C  -6.418668  -3.284718   1.414252
H  -4.186575  -3.451065   0.875835
H  -7.242814  -2.635418   1.619588
H  -6.507797  -4.335701   1.697544
H  -5.828981  -0.803514   0.738339

