%chk=/home/boittier/MDCM/nms_sampling/acrolein_geom.xyz.dir/acrolein_161.chk
%nproc=8
%mem=16000MB
#p B2PLYPD3/Def2QZVP 

acrolein

0 1
C  -5.009875  -1.378610   0.877621
O  -3.931984  -0.876541   0.671991
C  -5.189538  -2.809540   1.119291
C  -6.405040  -3.314546   1.418589
H  -4.323294  -3.421140   1.154003
H  -7.223379  -2.653056   1.399493
H  -6.609821  -4.415448   1.619769
H  -5.945742  -0.758441   0.945211

