%chk=/home/boittier/MDCM/nms_sampling/acrolein_geom.xyz.dir/acrolein_1515.chk
%nproc=8
%mem=16000MB
#p B2PLYPD3/Def2QZVP 

acrolein

0 1
C  -4.996040  -1.375882   0.865441
O  -3.924243  -0.881000   0.683531
C  -5.207164  -2.802647   1.100535
C  -6.413952  -3.312465   1.434919
H  -4.369421  -3.449714   1.179062
H  -7.174067  -2.688473   1.417288
H  -6.603604  -4.375750   1.601341
H  -5.934377  -0.799270   0.909842

