%chk=/home/boittier/MDCM/nms_sampling/acrolein_geom.xyz.dir/acrolein_1715.chk
%nproc=8
%mem=16000MB
#p B2PLYPD3/Def2QZVP 

acrolein

0 1
C  -5.008329  -1.385515   0.944752
O  -3.943704  -0.877959   0.617875
C  -5.187684  -2.784554   1.161809
C  -6.387744  -3.326142   1.366730
H  -4.321069  -3.397849   1.266206
H  -7.251440  -2.691464   1.341212
H  -6.618137  -4.422827   1.599428
H  -5.976245  -0.805659   1.070734
