%chk=/home/boittier/MDCM/nms_sampling/acrolein_geom.xyz.dir/acrolein_2324.chk
%nproc=8
%mem=16000MB
#p B2PLYPD3/Def2QZVP 

acrolein

0 1
C  -4.984994  -1.388692   0.819833
O  -3.931236  -0.860839   0.722251
C  -5.190672  -2.824125   1.078333
C  -6.417528  -3.313296   1.453246
H  -4.329454  -3.397926   1.006241
H  -7.478068  -2.637678   1.387811
H  -6.515994  -4.372268   1.817031
H  -5.956164  -0.828599   0.890062

