%chk=/home/boittier/MDCM/nms_sampling/acrolein_geom.xyz.dir/acrolein_331.chk
%nproc=8
%mem=16000MB
#p B2PLYPD3/Def2QZVP 

acrolein

0 1
C  -4.996870  -1.391251   0.909697
O  -3.934087  -0.860410   0.640635
C  -5.195266  -2.825826   1.165685
C  -6.408272  -3.313185   1.379777
H  -4.304774  -3.431203   1.151082
H  -7.322835  -2.646448   1.428336
H  -6.543130  -4.311519   1.567308
H  -5.964036  -0.800214   0.992929

