%chk=/home/boittier/MDCM/nms_sampling/acrolein_geom.xyz.dir/acrolein_997.chk
%nproc=8
%mem=16000MB
#p B2PLYPD3/Def2QZVP 

acrolein

0 1
C  -5.016282  -1.386158   0.910018
O  -3.937445  -0.869062   0.638263
C  -5.200940  -2.810477   1.166170
C  -6.394755  -3.313063   1.387231
H  -4.225300  -3.466723   1.144753
H  -7.183650  -2.668309   1.344153
H  -6.608319  -4.364904   1.551949
H  -5.916031  -0.802915   1.041583

