%chk=/home/boittier/MDCM/nms_sampling/acrolein_geom.xyz.dir/acrolein_1084.chk
%nproc=8
%mem=16000MB
#p B2PLYPD3/Def2QZVP 

acrolein

0 1
C  -4.999272  -1.371158   0.896462
O  -3.922165  -0.881722   0.649266
C  -5.203042  -2.801614   1.147692
C  -6.410094  -3.314881   1.391844
H  -4.295494  -3.408268   1.173696
H  -7.288066  -2.702463   1.340482
H  -6.632898  -4.457711   1.638175
H  -5.965224  -0.792956   1.078749

