%chk=/home/boittier/MDCM/nms_sampling/acrolein_geom.xyz.dir/acrolein_1511.chk
%nproc=8
%mem=16000MB
#p B2PLYPD3/Def2QZVP 

acrolein

0 1
C  -4.989071  -1.409710   0.868353
O  -3.927547  -0.852586   0.685573
C  -5.207361  -2.831275   1.116138
C  -6.427005  -3.302574   1.411168
H  -4.257480  -3.445246   1.038933
H  -7.320954  -2.625990   1.413179
H  -6.563928  -4.293513   1.793852
H  -5.832212  -0.804970   0.905232
