%chk=/home/boittier/MDCM/nms_sampling/acrolein_geom.xyz.dir/acrolein_157.chk
%nproc=8
%mem=16000MB
#p B2PLYPD3/Def2QZVP 

acrolein

0 1
C  -5.003287  -1.393481   0.909277
O  -3.936534  -0.859184   0.639679
C  -5.187723  -2.827425   1.158007
C  -6.411623  -3.303595   1.388365
H  -4.265264  -3.462613   1.182434
H  -7.314834  -2.649686   1.354914
H  -6.577485  -4.371058   1.563493
H  -5.912212  -0.796615   1.047632

