%chk=/home/boittier/MDCM/nms_sampling/acrolein_geom.xyz.dir/acrolein_2696.chk
%nproc=8
%mem=16000MB
#p B2PLYPD3/Def2QZVP 

acrolein

0 1
C  -5.026737  -1.341484   0.837538
O  -3.918089  -0.890082   0.723495
C  -5.196066  -2.827120   1.063959
C  -6.393452  -3.320148   1.435805
H  -4.371040  -3.408532   0.996036
H  -7.232455  -2.695795   1.428322
H  -6.511820  -4.401268   2.007411
H  -6.061731  -0.667459   0.820735

