%chk=/home/boittier/MDCM/nms_sampling/acrolein_geom.xyz.dir/acrolein_2018.chk
%nproc=8
%mem=16000MB
#p B2PLYPD3/Def2QZVP 

acrolein

0 1
C  -4.983499  -1.391064   0.808987
O  -3.929700  -0.846207   0.727318
C  -5.176426  -2.874481   1.083151
C  -6.438085  -3.287791   1.445228
H  -4.336964  -3.521188   1.013907
H  -7.342291  -2.668721   1.505771
H  -6.586507  -4.215386   1.802224
H  -5.973716  -0.721951   0.859263
