%chk=/home/boittier/MDCM/nms_sampling/acrolein_geom.xyz.dir/acrolein_1521.chk
%nproc=8
%mem=16000MB
#p B2PLYPD3/Def2QZVP 

acrolein

0 1
C  -4.992960  -1.407072   0.917017
O  -3.931143  -0.852705   0.628239
C  -5.206156  -2.836317   1.200788
C  -6.417020  -3.293578   1.370489
H  -4.308886  -3.441284   1.068231
H  -7.268589  -2.644177   1.414948
H  -6.551626  -4.309586   1.471068
H  -5.866477  -0.837237   0.994480

