%chk=/home/boittier/MDCM/nms_sampling/acrolein_geom.xyz.dir/acrolein_109.chk
%nproc=8
%mem=16000MB
#p B2PLYPD3/Def2QZVP 

acrolein

0 1
C  -4.999929  -1.391427   0.880000
O  -3.928657  -0.861179   0.677028
C  -5.194009  -2.832487   1.118372
C  -6.410198  -3.305700   1.416054
H  -4.342751  -3.433633   1.089812
H  -7.300206  -2.659690   1.431665
H  -6.574313  -4.316938   1.672240
H  -5.954984  -0.766930   0.865098

