%chk=/home/boittier/MDCM/nms_sampling/acrolein_geom.xyz.dir/acrolein_2080.chk
%nproc=8
%mem=16000MB
#p B2PLYPD3/Def2QZVP 

acrolein

0 1
C  -4.984920  -1.405213   0.965755
O  -3.914392  -0.840322   0.590600
C  -5.185056  -2.876082   1.202334
C  -6.450269  -3.257674   1.363118
H  -4.298765  -3.543745   1.287888
H  -7.361152  -2.653375   1.335246
H  -6.659309  -4.412339   1.317543
H  -5.909582  -0.787298   1.076193

