%chk=/home/boittier/MDCM/nms_sampling/acrolein_geom.xyz.dir/acrolein_2191.chk
%nproc=8
%mem=16000MB
#p B2PLYPD3/Def2QZVP 

acrolein

0 1
C  -5.006406  -1.408776   0.833361
O  -3.959424  -0.842450   0.719389
C  -5.167472  -2.838644   1.082628
C  -6.411290  -3.301419   1.453307
H  -4.165551  -3.501457   0.936780
H  -7.357601  -2.644124   1.361748
H  -6.613205  -4.267352   1.829814
H  -5.782124  -0.873823   0.816275
