%chk=/home/boittier/MDCM/nms_sampling/acrolein_geom.xyz.dir/acrolein_2560.chk
%nproc=8
%mem=16000MB
#p B2PLYPD3/Def2QZVP 

acrolein

0 1
C  -4.984714  -1.410527   0.948872
O  -3.920195  -0.857258   0.596439
C  -5.212207  -2.827604   1.197678
C  -6.435958  -3.292587   1.330190
H  -4.306794  -3.470400   1.308003
H  -7.395338  -2.679678   1.296506
H  -6.560609  -4.328273   1.651339
H  -5.730746  -0.769586   1.309495
