%chk=/home/boittier/MDCM/nms_sampling/acrolein_geom.xyz.dir/acrolein_933.chk
%nproc=8
%mem=16000MB
#p B2PLYPD3/Def2QZVP 

acrolein

0 1
C  -4.994366  -1.388209   0.854296
O  -3.924638  -0.856872   0.686438
C  -5.196487  -2.847692   1.123077
C  -6.435527  -3.293461   1.432812
H  -4.293404  -3.501983   1.099820
H  -7.242516  -2.633284   1.504916
H  -6.545437  -4.307656   1.503915
H  -5.893995  -0.799793   0.845368
