%chk=/home/boittier/MDCM/nms_sampling/acrolein_geom.xyz.dir/acrolein_1921.chk
%nproc=8
%mem=16000MB
#p B2PLYPD3/Def2QZVP 

acrolein

0 1
C  -4.985299  -1.383901   0.890896
O  -3.932216  -0.863740   0.663209
C  -5.187870  -2.846451   1.123600
C  -6.439060  -3.294925   1.414048
H  -4.240735  -3.435838   1.132278
H  -7.303228  -2.677270   1.287170
H  -6.656481  -4.331242   1.681063
H  -5.826483  -0.764348   1.008524
