%chk=/home/boittier/MDCM/nms_sampling/acrolein_geom.xyz.dir/acrolein_2219.chk
%nproc=8
%mem=16000MB
#p B2PLYPD3/Def2QZVP 

acrolein

0 1
C  -4.994059  -1.376942   0.817300
O  -3.929834  -0.863455   0.728930
C  -5.184788  -2.837383   1.075127
C  -6.415926  -3.306514   1.471695
H  -4.271942  -3.433200   0.921175
H  -7.414947  -2.601385   1.326595
H  -6.619900  -4.412883   1.786357
H  -5.964515  -0.808316   0.823511
