%chk=/home/boittier/MDCM/nms_sampling/acrolein_geom.xyz.dir/acrolein_114.chk
%nproc=8
%mem=16000MB
#p B2PLYPD3/Def2QZVP 

acrolein

0 1
C  -4.998494  -1.382385   0.892303
O  -3.927504  -0.874859   0.662452
C  -5.203857  -2.804427   1.147893
C  -6.408961  -3.318285   1.399799
H  -4.318179  -3.410574   1.069881
H  -7.241159  -2.668857   1.481128
H  -6.575283  -4.382715   1.580936
H  -5.968724  -0.792363   0.852118
