%chk=/home/boittier/MDCM/nms_sampling/acrolein_geom.xyz.dir/acrolein_528.chk
%nproc=8
%mem=16000MB
#p B2PLYPD3/Def2QZVP 

acrolein

0 1
C  -4.993450  -1.398817   0.921612
O  -3.927430  -0.857393   0.635493
C  -5.200515  -2.827204   1.162962
C  -6.419501  -3.305847   1.375199
H  -4.287609  -3.439349   1.152720
H  -7.306737  -2.643008   1.375228
H  -6.572619  -4.327058   1.628349
H  -5.922236  -0.814018   1.012854

