%chk=/home/boittier/MDCM/nms_sampling/acrolein_geom.xyz.dir/acrolein_456.chk
%nproc=8
%mem=16000MB
#p B2PLYPD3/Def2QZVP 

acrolein

0 1
C  -5.007598  -1.382055   0.913628
O  -3.940275  -0.876391   0.641067
C  -5.198222  -2.801949   1.163168
C  -6.393530  -3.313890   1.381732
H  -4.308736  -3.443210   1.149473
H  -7.235348  -2.676074   1.453347
H  -6.585777  -4.404032   1.548757
H  -5.908988  -0.791969   0.941905
