%chk=/home/boittier/MDCM/nms_sampling/acrolein_geom.xyz.dir/acrolein_1231.chk
%nproc=8
%mem=16000MB
#p B2PLYPD3/Def2QZVP 

acrolein

0 1
C  -4.999627  -1.386094   0.852508
O  -3.929029  -0.861570   0.685638
C  -5.187062  -2.837801   1.130792
C  -6.432020  -3.301108   1.413079
H  -4.271396  -3.489053   1.084088
H  -7.322979  -2.639044   1.529934
H  -6.562786  -4.341712   1.616370
H  -5.843039  -0.760213   0.898845

