%chk=/home/boittier/MDCM/nms_sampling/acrolein_geom.xyz.dir/acrolein_434.chk
%nproc=8
%mem=16000MB
#p B2PLYPD3/Def2QZVP 

acrolein

0 1
C  -5.002482  -1.398867   0.881408
O  -3.938362  -0.855600   0.676939
C  -5.185861  -2.832222   1.115080
C  -6.406667  -3.301695   1.416125
H  -4.318628  -3.462616   1.105175
H  -7.321125  -2.641469   1.436378
H  -6.551612  -4.344535   1.676751
H  -5.936999  -0.779273   0.862118
