%chk=/home/boittier/MDCM/nms_sampling/acrolein_geom.xyz.dir/acrolein_1446.chk
%nproc=8
%mem=16000MB
#p B2PLYPD3/Def2QZVP 

acrolein

0 1
C  -4.997736  -1.376129   0.901519
O  -3.922284  -0.886400   0.653746
C  -5.213491  -2.784719   1.133893
C  -6.409321  -3.329369   1.402973
H  -4.332329  -3.403087   1.189935
H  -7.212626  -2.641847   1.395328
H  -6.600358  -4.406250   1.586957
H  -5.926592  -0.796127   0.959689

