%chk=/home/boittier/MDCM/nms_sampling/acrolein_geom.xyz.dir/acrolein_2674.chk
%nproc=8
%mem=16000MB
#p B2PLYPD3/Def2QZVP 

acrolein

0 1
C  -4.990441  -1.415100   0.958080
O  -3.949108  -0.837413   0.592797
C  -5.169470  -2.856748   1.240475
C  -6.431747  -3.284712   1.358522
H  -4.247737  -3.535418   1.051402
H  -7.211330  -2.611086   1.290855
H  -6.538868  -4.316048   1.318389
H  -5.997879  -0.761831   1.037594

