%chk=/home/boittier/MDCM/nms_sampling/acrolein_geom.xyz.dir/acrolein_932.chk
%nproc=8
%mem=16000MB
#p B2PLYPD3/Def2QZVP 

acrolein

0 1
C  -5.012310  -1.387472   0.901191
O  -3.952124  -0.853903   0.662833
C  -5.170471  -2.848470   1.136555
C  -6.402312  -3.301285   1.399481
H  -4.279605  -3.464545   1.076710
H  -7.315883  -2.651987   1.461950
H  -6.552040  -4.277237   1.646492
H  -5.872095  -0.814649   0.828157

