%chk=/home/boittier/MDCM/nms_sampling/acrolein_geom.xyz.dir/acrolein_1282.chk
%nproc=8
%mem=16000MB
#p B2PLYPD3/Def2QZVP 

acrolein

0 1
C  -5.003273  -1.409221   0.942855
O  -3.940574  -0.851314   0.626465
C  -5.187718  -2.823176   1.157698
C  -6.412311  -3.305007   1.384536
H  -4.214836  -3.466714   1.162143
H  -7.262293  -2.629825   1.293584
H  -6.572123  -4.366920   1.585469
H  -5.947432  -0.792971   0.975599
