%chk=/home/boittier/MDCM/nms_sampling/acrolein_geom.xyz.dir/acrolein_2681.chk
%nproc=8
%mem=16000MB
#p B2PLYPD3/Def2QZVP 

acrolein

0 1
C  -4.998430  -1.406822   0.795085
O  -3.962915  -0.841136   0.729413
C  -5.165204  -2.866329   1.067502
C  -6.421502  -3.278355   1.470513
H  -4.145480  -3.461467   1.103211
H  -7.321499  -2.647708   1.383337
H  -6.653548  -4.313062   1.720740
H  -5.736700  -0.850000   0.985205

