%chk=/home/boittier/MDCM/nms_sampling/acrolein_geom.xyz.dir/acrolein_195.chk
%nproc=8
%mem=16000MB
#p B2PLYPD3/Def2QZVP 

acrolein

0 1
C  -4.998345  -1.390382   0.901853
O  -3.936322  -0.861754   0.645224
C  -5.191387  -2.830915   1.167705
C  -6.408413  -3.305527   1.384867
H  -4.334836  -3.440889   1.124532
H  -7.294926  -2.672028   1.445450
H  -6.554928  -4.310981   1.536807
H  -5.937689  -0.777954   0.970699
