%chk=/home/boittier/MDCM/nms_sampling/acrolein_geom.xyz.dir/acrolein_2304.chk
%nproc=8
%mem=16000MB
#p B2PLYPD3/Def2QZVP 

acrolein

0 1
C  -5.014876  -1.373298   0.975491
O  -3.952260  -0.872822   0.591038
C  -5.184345  -2.824729   1.169300
C  -6.399218  -3.313550   1.331449
H  -4.255458  -3.493231   1.439895
H  -7.138443  -2.635446   1.368057
H  -6.503367  -4.348178   1.643791
H  -5.948340  -0.711054   1.195059
