%chk=/home/boittier/MDCM/nms_sampling/acrolein_geom.xyz.dir/acrolein_368.chk
%nproc=8
%mem=16000MB
#p B2PLYPD3/Def2QZVP 

acrolein

0 1
C  -5.014443  -1.379161   0.896959
O  -3.937956  -0.873554   0.662856
C  -5.190857  -2.811245   1.128520
C  -6.393807  -3.318152   1.413472
H  -4.345011  -3.427236   1.107477
H  -7.232240  -2.663710   1.365060
H  -6.532022  -4.361002   1.620390
H  -5.961913  -0.768848   0.899525

