%chk=/home/boittier/MDCM/nms_sampling/acrolein_geom.xyz.dir/acrolein_1306.chk
%nproc=8
%mem=16000MB
#p B2PLYPD3/Def2QZVP 

acrolein

0 1
C  -4.989872  -1.416390   0.936823
O  -3.946024  -0.845483   0.618108
C  -5.181623  -2.840062   1.179353
C  -6.417451  -3.292552   1.376916
H  -4.292558  -3.433016   1.217297
H  -7.233538  -2.620892   1.380748
H  -6.590812  -4.331612   1.431668
H  -5.955009  -0.813904   1.011365
