%chk=/home/boittier/MDCM/nms_sampling/acrolein_geom.xyz.dir/acrolein_81.chk
%nproc=8
%mem=16000MB
#p B2PLYPD3/Def2QZVP 

acrolein

0 1
C  -4.999266  -1.390279   0.882474
O  -3.931437  -0.862442   0.677042
C  -5.184479  -2.828403   1.116305
C  -6.418459  -3.302433   1.414619
H  -4.340101  -3.464425   1.091225
H  -7.306771  -2.652226   1.437870
H  -6.576733  -4.366263   1.688685
H  -5.928370  -0.770621   0.853237

