%chk=/home/boittier/MDCM/nms_sampling/acrolein_geom.xyz.dir/acrolein_832.chk
%nproc=8
%mem=16000MB
#p B2PLYPD3/Def2QZVP 

acrolein

0 1
C  -5.005884  -1.386969   0.891396
O  -3.937605  -0.871298   0.664213
C  -5.193798  -2.805610   1.132724
C  -6.397487  -3.315243   1.410939
H  -4.314899  -3.443480   1.097783
H  -7.243818  -2.678998   1.376016
H  -6.573731  -4.386418   1.624869
H  -5.976770  -0.766836   0.917882

