%chk=/home/boittier/MDCM/nms_sampling/acrolein_geom.xyz.dir/acrolein_521.chk
%nproc=8
%mem=16000MB
#p B2PLYPD3/Def2QZVP 

acrolein

0 1
C  -5.003759  -1.396389   0.863760
O  -3.936056  -0.859802   0.679872
C  -5.193990  -2.823204   1.122860
C  -6.408573  -3.308859   1.421190
H  -4.252666  -3.458165   1.114830
H  -7.267950  -2.640491   1.441258
H  -6.573984  -4.348801   1.606245
H  -5.935591  -0.775493   0.924118

