%chk=/home/boittier/MDCM/nms_sampling/acrolein_geom.xyz.dir/acrolein_911.chk
%nproc=8
%mem=16000MB
#p B2PLYPD3/Def2QZVP 

acrolein

0 1
C  -5.019775  -1.386728   0.858894
O  -3.935635  -0.877406   0.675203
C  -5.197629  -2.788777   1.149735
C  -6.386643  -3.326322   1.419553
H  -4.249174  -3.397700   1.062275
H  -7.194955  -2.668517   1.482825
H  -6.604865  -4.448040   1.470835
H  -6.001587  -0.745332   0.903629
