%chk=/home/boittier/MDCM/nms_sampling/acrolein_geom.xyz.dir/acrolein_2621.chk
%nproc=8
%mem=16000MB
#p B2PLYPD3/Def2QZVP 

acrolein

0 1
C  -5.017364  -1.412322   0.938847
O  -3.942279  -0.869037   0.617969
C  -5.187324  -2.771074   1.175220
C  -6.385499  -3.322526   1.355933
H  -4.251249  -3.426324   1.296847
H  -7.277899  -2.620718   1.535748
H  -6.642751  -4.535651   1.485826
H  -5.945160  -0.768409   0.985016

