%chk=/home/boittier/MDCM/nms_sampling/acrolein_geom.xyz.dir/acrolein_1861.chk
%nproc=8
%mem=16000MB
#p B2PLYPD3/Def2QZVP 

acrolein

0 1
C  -4.996185  -1.443171   0.821484
O  -3.950635  -0.830019   0.727743
C  -5.173019  -2.828175   1.038961
C  -6.421848  -3.301323   1.474676
H  -4.192482  -3.420923   1.172684
H  -7.357116  -2.648561   1.424395
H  -6.507162  -4.325810   1.752761
H  -5.939199  -0.797120   0.843606
