%chk=/home/boittier/MDCM/nms_sampling/acrolein_geom.xyz.dir/acrolein_1180.chk
%nproc=8
%mem=16000MB
#p B2PLYPD3/Def2QZVP 

acrolein

0 1
C  -5.006165  -1.383539   0.865247
O  -3.948577  -0.864131   0.682531
C  -5.187038  -2.830600   1.117345
C  -6.398014  -3.307368   1.408271
H  -4.282909  -3.475692   1.116194
H  -7.298264  -2.612308   1.474490
H  -6.558775  -4.335368   1.726110
H  -5.863569  -0.804857   0.927830
