%chk=/home/boittier/MDCM/nms_sampling/acrolein_geom.xyz.dir/acrolein_469.chk
%nproc=8
%mem=16000MB
#p B2PLYPD3/Def2QZVP 

acrolein

0 1
C  -5.004252  -1.380994   0.874081
O  -3.928962  -0.869424   0.674767
C  -5.193667  -2.816882   1.130280
C  -6.408369  -3.314978   1.421144
H  -4.320566  -3.430377   1.099110
H  -7.335170  -2.654771   1.472833
H  -6.561227  -4.367973   1.535491
H  -5.927178  -0.797188   0.851468
