%chk=/home/boittier/MDCM/nms_sampling/acrolein_geom.xyz.dir/acrolein_2517.chk
%nproc=8
%mem=16000MB
#p B2PLYPD3/Def2QZVP 

acrolein

0 1
C  -5.008131  -1.401290   0.834324
O  -3.961619  -0.849880   0.722912
C  -5.165400  -2.833966   1.081321
C  -6.396354  -3.309961   1.439063
H  -4.330594  -3.459130   1.020964
H  -7.403144  -2.610408   1.676998
H  -6.528307  -4.244423   1.724529
H  -5.790034  -0.868383   0.621149

