%chk=/home/boittier/MDCM/nms_sampling/acrolein_geom.xyz.dir/acrolein_1795.chk
%nproc=8
%mem=16000MB
#p B2PLYPD3/Def2QZVP 

acrolein

0 1
C  -5.018559  -1.390190   0.902412
O  -3.943639  -0.869360   0.643019
C  -5.194993  -2.803755   1.160992
C  -6.383479  -3.319664   1.378489
H  -4.310456  -3.458237   1.182093
H  -7.274764  -2.679111   1.421008
H  -6.516857  -4.343757   1.602025
H  -5.913538  -0.758861   1.050168

