%chk=/home/boittier/MDCM/nms_sampling/acrolein_geom.xyz.dir/acrolein_2639.chk
%nproc=8
%mem=16000MB
#p B2PLYPD3/Def2QZVP 

acrolein

0 1
C  -5.007569  -1.363064   0.816392
O  -3.918692  -0.899887   0.717349
C  -5.216869  -2.784747   1.083827
C  -6.400757  -3.314904   1.436114
H  -4.395806  -3.442145   1.111694
H  -7.173974  -2.651019   1.513136
H  -6.603762  -4.525028   1.783780
H  -5.891755  -0.713484   0.930962

