%chk=/home/boittier/MDCM/nms_sampling/acrolein_geom.xyz.dir/acrolein_769.chk
%nproc=8
%mem=16000MB
#p B2PLYPD3/Def2QZVP 

acrolein

0 1
C  -4.999481  -1.390316   0.872293
O  -3.934387  -0.862539   0.678339
C  -5.194871  -2.832122   1.128197
C  -6.408539  -3.300761   1.413834
H  -4.347803  -3.471568   1.086216
H  -7.319677  -2.662197   1.508956
H  -6.555635  -4.320540   1.602039
H  -5.876681  -0.775893   0.838090
