%chk=/home/boittier/MDCM/nms_sampling/acrolein_geom.xyz.dir/acrolein_2058.chk
%nproc=8
%mem=16000MB
#p B2PLYPD3/Def2QZVP 

acrolein

0 1
C  -4.978097  -1.439041   0.839672
O  -3.954156  -0.831279   0.700834
C  -5.205473  -2.870859   1.096429
C  -6.417177  -3.262973   1.411875
H  -4.255228  -3.455109   1.154770
H  -7.214641  -2.597709   1.548057
H  -6.541945  -4.283503   1.809406
H  -5.798761  -0.807945   0.944577

