%chk=/home/boittier/MDCM/nms_sampling/acrolein_geom.xyz.dir/acrolein_1645.chk
%nproc=8
%mem=16000MB
#p B2PLYPD3/Def2QZVP 

acrolein

0 1
C  -4.998687  -1.392796   0.892263
O  -3.927534  -0.854999   0.671153
C  -5.185547  -2.841107   1.114697
C  -6.423422  -3.296635   1.427318
H  -4.266553  -3.489151   1.084340
H  -7.369953  -2.651359   1.326391
H  -6.623957  -4.354186   1.642410
H  -5.900556  -0.784345   0.869260
