%chk=/home/boittier/MDCM/nms_sampling/acrolein_geom.xyz.dir/acrolein_1881.chk
%nproc=8
%mem=16000MB
#p B2PLYPD3/Def2QZVP 

acrolein

0 1
C  -5.035471  -1.340993   0.839178
O  -3.950692  -0.896305   0.696505
C  -5.196467  -2.803336   1.095374
C  -6.356419  -3.325059   1.436356
H  -4.298148  -3.384548   1.145091
H  -7.084745  -2.736918   1.356132
H  -6.550508  -4.418869   1.725954
H  -6.041765  -0.780298   1.033452
