%chk=/home/boittier/MDCM/nms_sampling/acrolein_geom.xyz.dir/acrolein_1432.chk
%nproc=8
%mem=16000MB
#p B2PLYPD3/Def2QZVP 

acrolein

0 1
C  -5.002643  -1.383244   0.901345
O  -3.937763  -0.875404   0.645838
C  -5.186039  -2.801626   1.161346
C  -6.409342  -3.316013   1.394377
H  -4.261526  -3.452183   1.170218
H  -7.256505  -2.663936   1.476913
H  -6.655544  -4.432084   1.451185
H  -5.923994  -0.756013   0.933213

