%chk=/home/boittier/MDCM/nms_sampling/acrolein_geom.xyz.dir/acrolein_93.chk
%nproc=8
%mem=16000MB
#p B2PLYPD3/Def2QZVP 

acrolein

0 1
C  -4.998707  -1.402037   0.877934
O  -3.943104  -0.855532   0.677921
C  -5.189273  -2.832420   1.115110
C  -6.409511  -3.301587   1.422530
H  -4.288294  -3.453407   1.094856
H  -7.255797  -2.632295   1.399454
H  -6.561957  -4.323500   1.657453
H  -5.912730  -0.784153   0.880028

