%chk=/home/boittier/MDCM/nms_sampling/acrolein_geom.xyz.dir/acrolein_534.chk
%nproc=8
%mem=16000MB
#p B2PLYPD3/Def2QZVP 

acrolein

0 1
C  -5.008855  -1.389527   0.874196
O  -3.938624  -0.870314   0.669959
C  -5.192771  -2.806817   1.137596
C  -6.398941  -3.313799   1.400810
H  -4.315480  -3.443940   1.120990
H  -7.255069  -2.651684   1.472896
H  -6.570722  -4.386773   1.637758
H  -5.908889  -0.781637   0.951534

