%chk=/home/boittier/MDCM/nms_sampling/acrolein_geom.xyz.dir/acrolein_1390.chk
%nproc=8
%mem=16000MB
#p B2PLYPD3/Def2QZVP 

acrolein

0 1
C  -5.021682  -1.371666   0.852939
O  -3.945728  -0.886537   0.695367
C  -5.193675  -2.791458   1.120512
C  -6.377582  -3.328871   1.423411
H  -4.329691  -3.387990   0.986412
H  -7.240072  -2.667654   1.477663
H  -6.541560  -4.413153   1.696967
H  -5.904290  -0.748722   0.823682
