%chk=/home/boittier/MDCM/nms_sampling/acrolein_geom.xyz.dir/acrolein_192.chk
%nproc=8
%mem=16000MB
#p B2PLYPD3/Def2QZVP 

acrolein

0 1
C  -4.997492  -1.389935   0.868433
O  -3.929373  -0.860512   0.679839
C  -5.191421  -2.834065   1.116685
C  -6.417606  -3.298468   1.410892
H  -4.302678  -3.467141   1.136890
H  -7.283918  -2.645425   1.465525
H  -6.617475  -4.362213   1.693035
H  -5.930076  -0.801404   0.929137
