%chk=/home/boittier/MDCM/nms_sampling/acrolein_geom.xyz.dir/acrolein_415.chk
%nproc=8
%mem=16000MB
#p B2PLYPD3/Def2QZVP 

acrolein

0 1
C  -5.012243  -1.384924   0.876469
O  -3.939389  -0.876205   0.668345
C  -5.195747  -2.798178   1.143302
C  -6.391696  -3.317844   1.399133
H  -4.306260  -3.404814   1.104014
H  -7.235484  -2.657375   1.489710
H  -6.590644  -4.421204   1.614128
H  -5.911107  -0.800594   0.927213
