%chk=/home/boittier/MDCM/nms_sampling/acrolein_geom.xyz.dir/acrolein_1170.chk
%nproc=8
%mem=16000MB
#p B2PLYPD3/Def2QZVP 

acrolein

0 1
C  -5.000599  -1.396153   0.884633
O  -3.954938  -0.852186   0.660977
C  -5.181119  -2.843640   1.147738
C  -6.400618  -3.300206   1.389553
H  -4.311798  -3.470003   1.124039
H  -7.287092  -2.656134   1.461316
H  -6.531081  -4.243900   1.649679
H  -5.880719  -0.829982   0.978995
