%chk=/home/boittier/MDCM/nms_sampling/acrolein_geom.xyz.dir/acrolein_1389.chk
%nproc=8
%mem=16000MB
#p B2PLYPD3/Def2QZVP 

acrolein

0 1
C  -5.016067  -1.373013   0.899212
O  -3.943108  -0.870428   0.645441
C  -5.179501  -2.819719   1.155546
C  -6.396885  -3.321626   1.376388
H  -4.272355  -3.419565   1.194781
H  -7.251817  -2.669464   1.412990
H  -6.511763  -4.367782   1.654890
H  -6.034791  -0.750431   1.080615
