%chk=/home/boittier/MDCM/nms_sampling/acrolein_geom.xyz.dir/acrolein_54.chk
%nproc=8
%mem=16000MB
#p B2PLYPD3/Def2QZVP 

acrolein

0 1
C  -4.995926  -1.393781   0.873542
O  -3.930675  -0.861893   0.675241
C  -5.196402  -2.822933   1.139827
C  -6.418498  -3.309584   1.418394
H  -4.300733  -3.444745   1.022315
H  -7.295092  -2.636891   1.434827
H  -6.572216  -4.325912   1.573438
H  -5.896049  -0.806270   0.855235
