%chk=/home/boittier/MDCM/nms_sampling/acrolein_geom.xyz.dir/acrolein_150.chk
%nproc=8
%mem=16000MB
#p B2PLYPD3/Def2QZVP 

acrolein

0 1
C  -5.009679  -1.375751   0.882801
O  -3.931386  -0.874268   0.668987
C  -5.189709  -2.813827   1.124976
C  -6.399507  -3.313304   1.406676
H  -4.366322  -3.444219   1.160139
H  -7.266695  -2.677807   1.463459
H  -6.578215  -4.379705   1.632845
H  -5.972287  -0.776165   0.918960

