%chk=/home/boittier/MDCM/nms_sampling/acrolein_geom.xyz.dir/acrolein_2439.chk
%nproc=8
%mem=16000MB
#p B2PLYPD3/Def2QZVP 

acrolein

0 1
C  -5.002561  -1.396610   0.856814
O  -3.967069  -0.838438   0.688211
C  -5.171614  -2.864462   1.081662
C  -6.416456  -3.298689   1.436513
H  -4.145211  -3.518619   1.251716
H  -7.309705  -2.620251   1.365181
H  -6.430136  -4.201568   1.699744
H  -5.844656  -0.856604   1.018087
