%chk=/home/boittier/MDCM/nms_sampling/acrolein_geom.xyz.dir/acrolein_1056.chk
%nproc=8
%mem=16000MB
#p B2PLYPD3/Def2QZVP 

acrolein

0 1
C  -5.004540  -1.407697   0.929613
O  -3.940658  -0.846554   0.625763
C  -5.183062  -2.833861   1.192551
C  -6.410650  -3.301921   1.363560
H  -4.204670  -3.496156   1.081616
H  -7.314941  -2.662523   1.408985
H  -6.590954  -4.322428   1.552235
H  -5.952865  -0.786619   0.976576

