%chk=/home/boittier/MDCM/nms_sampling/acrolein_geom.xyz.dir/acrolein_2652.chk
%nproc=8
%mem=16000MB
#p B2PLYPD3/Def2QZVP 

acrolein

0 1
C  -5.028732  -1.370973   0.848030
O  -3.946321  -0.884465   0.703231
C  -5.174981  -2.776088   1.125982
C  -6.372220  -3.338126   1.411906
H  -4.356067  -3.373402   0.899303
H  -7.276212  -2.753842   1.547992
H  -6.556981  -4.415317   1.790592
H  -6.024050  -0.797699   0.758894

