%chk=/home/boittier/MDCM/nms_sampling/acrolein_geom.xyz.dir/acrolein_655.chk
%nproc=8
%mem=16000MB
#p B2PLYPD3/Def2QZVP 

acrolein

0 1
C  -5.009600  -1.380730   0.906395
O  -3.936485  -0.874488   0.650482
C  -5.192314  -2.798824   1.147703
C  -6.395053  -3.325098   1.398953
H  -4.321839  -3.427540   1.117371
H  -7.258788  -2.695535   1.373843
H  -6.553385  -4.363258   1.586432
H  -5.995534  -0.779142   0.939765

