%chk=/home/boittier/MDCM/nms_sampling/acrolein_geom.xyz.dir/acrolein_1794.chk
%nproc=8
%mem=16000MB
#p B2PLYPD3/Def2QZVP 

acrolein

0 1
C  -5.002145  -1.398622   0.928511
O  -3.939408  -0.866726   0.632048
C  -5.202761  -2.806227   1.150214
C  -6.404423  -3.311771   1.390414
H  -4.245272  -3.410417   1.212211
H  -7.230647  -2.672264   1.307181
H  -6.551045  -4.392874   1.567073
H  -5.913912  -0.782340   1.024185
