%chk=/home/boittier/MDCM/nms_sampling/acrolein_geom.xyz.dir/acrolein_1072.chk
%nproc=8
%mem=16000MB
#p B2PLYPD3/Def2QZVP 

acrolein

0 1
C  -4.994833  -1.413638   0.931521
O  -3.946214  -0.846546   0.620208
C  -5.183943  -2.832700   1.181614
C  -6.418760  -3.297823   1.378543
H  -4.212955  -3.492538   1.212317
H  -7.258614  -2.638231   1.403017
H  -6.564067  -4.341323   1.404899
H  -5.943666  -0.777468   1.003485

