%chk=/home/boittier/MDCM/nms_sampling/acrolein_geom.xyz.dir/acrolein_1184.chk
%nproc=8
%mem=16000MB
#p B2PLYPD3/Def2QZVP 

acrolein

0 1
C  -5.006317  -1.363840   0.869809
O  -3.925938  -0.879230   0.667778
C  -5.196204  -2.808091   1.157760
C  -6.409863  -3.328252   1.391422
H  -4.309433  -3.455182   1.094404
H  -7.274673  -2.679949   1.570373
H  -6.532621  -4.342905   1.559544
H  -6.001056  -0.759805   0.914518

