%chk=/home/boittier/MDCM/nms_sampling/acrolein_geom.xyz.dir/acrolein_1353.chk
%nproc=8
%mem=16000MB
#p B2PLYPD3/Def2QZVP 

acrolein

0 1
C  -5.003111  -1.405684   0.922568
O  -3.948544  -0.850871   0.632455
C  -5.182447  -2.828666   1.154069
C  -6.398096  -3.303995   1.373700
H  -4.294819  -3.468071   1.252803
H  -7.355551  -2.640569   1.398450
H  -6.539037  -4.326611   1.610860
H  -5.915947  -0.811355   1.055667

