%chk=/home/boittier/MDCM/nms_sampling/acrolein_geom.xyz.dir/acrolein_848.chk
%nproc=8
%mem=16000MB
#p B2PLYPD3/Def2QZVP 

acrolein

0 1
C  -4.996982  -1.398249   0.894350
O  -3.928422  -0.859556   0.656083
C  -5.199712  -2.818540   1.157877
C  -6.414320  -3.307409   1.393640
H  -4.285204  -3.451487   1.070573
H  -7.293930  -2.668304   1.440178
H  -6.574737  -4.351267   1.584176
H  -5.949995  -0.809198   0.919722
