%chk=/home/boittier/MDCM/nms_sampling/acrolein_geom.xyz.dir/acrolein_2482.chk
%nproc=8
%mem=16000MB
#p B2PLYPD3/Def2QZVP 

acrolein

0 1
C  -4.981951  -1.433162   0.905733
O  -3.955986  -0.838876   0.672885
C  -5.179084  -2.824765   1.096666
C  -6.405317  -3.292102   1.411057
H  -4.270073  -3.486552   1.111143
H  -7.408533  -2.638110   1.364684
H  -6.663737  -4.342124   1.828261
H  -5.864187  -0.856073   0.837117
