%chk=/home/boittier/MDCM/nms_sampling/acrolein_geom.xyz.dir/acrolein_2040.chk
%nproc=8
%mem=16000MB
#p B2PLYPD3/Def2QZVP 

acrolein

0 1
C  -5.022516  -1.354329   0.938659
O  -3.912099  -0.886479   0.625671
C  -5.206212  -2.797502   1.162343
C  -6.397530  -3.341736   1.357013
H  -4.306839  -3.469214   1.163118
H  -7.317743  -2.675259   1.284228
H  -6.487441  -4.371382   1.791428
H  -6.064122  -0.679673   1.108955

