%chk=/home/boittier/MDCM/nms_sampling/acrolein_geom.xyz.dir/acrolein_306.chk
%nproc=8
%mem=16000MB
#p B2PLYPD3/Def2QZVP 

acrolein

0 1
C  -5.001711  -1.389196   0.884758
O  -3.934687  -0.864516   0.668468
C  -5.193824  -2.824630   1.137256
C  -6.407113  -3.304371   1.413717
H  -4.296992  -3.440254   1.067865
H  -7.237002  -2.661698   1.425858
H  -6.595081  -4.369759   1.580048
H  -5.961027  -0.790290   0.868503
