%chk=/home/boittier/MDCM/nms_sampling/acrolein_geom.xyz.dir/acrolein_2094.chk
%nproc=8
%mem=16000MB
#p B2PLYPD3/Def2QZVP 

acrolein

0 1
C  -4.970308  -1.421667   0.941716
O  -3.914515  -0.847667   0.601497
C  -5.218687  -2.815750   1.199852
C  -6.447037  -3.301673   1.331515
H  -4.261946  -3.442374   1.286569
H  -7.316801  -2.721007   1.353087
H  -6.565266  -4.280300   1.624738
H  -5.910646  -0.873884   1.264293

