%chk=/home/boittier/MDCM/nms_sampling/acrolein_geom.xyz.dir/acrolein_483.chk
%nproc=8
%mem=16000MB
#p B2PLYPD3/Def2QZVP 

acrolein

0 1
C  -5.004168  -1.380897   0.859829
O  -3.926561  -0.871616   0.681664
C  -5.199543  -2.811875   1.133178
C  -6.404433  -3.318889   1.409312
H  -4.338754  -3.427202   1.082271
H  -7.284063  -2.669072   1.521800
H  -6.550565  -4.351570   1.624540
H  -5.983931  -0.776121   0.893941
