%chk=/home/boittier/MDCM/nms_sampling/acrolein_geom.xyz.dir/acrolein_2355.chk
%nproc=8
%mem=16000MB
#p B2PLYPD3/Def2QZVP 

acrolein

0 1
C  -4.991002  -1.400550   0.862374
O  -3.917175  -0.840934   0.702239
C  -5.198937  -2.881456   1.117606
C  -6.420028  -3.289326   1.428328
H  -4.383937  -3.454407   0.920985
H  -7.446965  -2.633969   1.630400
H  -6.542725  -4.171707   1.626410
H  -5.926354  -0.743771   0.568658
