%chk=/home/boittier/MDCM/nms_sampling/acrolein_geom.xyz.dir/acrolein_2072.chk
%nproc=8
%mem=16000MB
#p B2PLYPD3/Def2QZVP 

acrolein

0 1
C  -4.998860  -1.407720   0.898137
O  -3.954422  -0.846494   0.640761
C  -5.171517  -2.850869   1.151311
C  -6.404964  -3.279728   1.392297
H  -4.215564  -3.495429   1.230355
H  -7.286961  -2.603656   1.265494
H  -6.687722  -4.425576   1.606297
H  -5.911663  -0.793409   1.190088

