%chk=/home/boittier/MDCM/nms_sampling/acrolein_geom.xyz.dir/acrolein_2042.chk
%nproc=8
%mem=16000MB
#p B2PLYPD3/Def2QZVP 

acrolein

0 1
C  -4.994148  -1.411307   0.863139
O  -3.926914  -0.843831   0.699304
C  -5.213455  -2.848255   1.111891
C  -6.418088  -3.306220   1.427442
H  -4.281678  -3.519700   0.979152
H  -7.379380  -2.576513   1.599558
H  -6.487895  -4.165200   1.642962
H  -5.813162  -0.774359   0.635004

