%chk=/home/boittier/MDCM/nms_sampling/acrolein_geom.xyz.dir/acrolein_123.chk
%nproc=8
%mem=16000MB
#p B2PLYPD3/Def2QZVP 

acrolein

0 1
C  -5.003313  -1.396519   0.903496
O  -3.938459  -0.856768   0.648429
C  -5.194539  -2.830887   1.143935
C  -6.410102  -3.301587   1.397687
H  -4.239351  -3.469895   1.182312
H  -7.262508  -2.653932   1.369535
H  -6.581699  -4.329888   1.580900
H  -5.891005  -0.815972   1.003539
