%chk=/home/boittier/MDCM/nms_sampling/acrolein_geom.xyz.dir/acrolein_851.chk
%nproc=8
%mem=16000MB
#p B2PLYPD3/Def2QZVP 

acrolein

0 1
C  -5.000300  -1.385033   0.875435
O  -3.935871  -0.863064   0.675300
C  -5.192396  -2.829506   1.126221
C  -6.413475  -3.311197   1.418214
H  -4.285854  -3.473061   1.070079
H  -7.304420  -2.670688   1.380157
H  -6.533765  -4.290534   1.653495
H  -5.915584  -0.765106   0.919882
