%chk=/home/boittier/MDCM/nms_sampling/acrolein_geom.xyz.dir/acrolein_1544.chk
%nproc=8
%mem=16000MB
#p B2PLYPD3/Def2QZVP 

acrolein

0 1
C  -5.010268  -1.367759   0.872592
O  -3.927301  -0.888856   0.678733
C  -5.206425  -2.793798   1.102803
C  -6.400235  -3.323636   1.431040
H  -4.286283  -3.399762   1.176073
H  -7.244711  -2.665365   1.374834
H  -6.591309  -4.460436   1.630473
H  -5.912566  -0.743546   0.938200

