%chk=/home/boittier/MDCM/nms_sampling/acrolein_geom.xyz.dir/acrolein_50.chk
%nproc=8
%mem=16000MB
#p B2PLYPD3/Def2QZVP 

acrolein

0 1
C  -5.003812  -1.395160   0.861767
O  -3.945088  -0.857629   0.677357
C  -5.189701  -2.836617   1.137948
C  -6.398522  -3.301865   1.417030
H  -4.323447  -3.465481   1.082290
H  -7.286868  -2.640489   1.470661
H  -6.540770  -4.298556   1.554382
H  -5.900128  -0.778594   0.913566

