%chk=/home/boittier/MDCM/nms_sampling/acrolein_geom.xyz.dir/acrolein_73.chk
%nproc=8
%mem=16000MB
#p B2PLYPD3/Def2QZVP 

acrolein

0 1
C  -5.005325  -1.386546   0.914076
O  -3.937898  -0.861674   0.638287
C  -5.180448  -2.827243   1.165204
C  -6.411934  -3.307349   1.380085
H  -4.286655  -3.463540   1.173717
H  -7.320534  -2.667189   1.453734
H  -6.579458  -4.348189   1.530293
H  -5.917747  -0.799484   0.966563

