%chk=/home/boittier/MDCM/nms_sampling/acrolein_geom.xyz.dir/acrolein_2014.chk
%nproc=8
%mem=16000MB
#p B2PLYPD3/Def2QZVP 

acrolein

0 1
C  -5.005684  -1.396166   0.931827
O  -3.966298  -0.839046   0.608592
C  -5.160179  -2.881009   1.175457
C  -6.405780  -3.280381   1.375400
H  -4.262429  -3.531353   1.329736
H  -7.265424  -2.640785   1.211628
H  -6.561556  -4.207342   1.484965
H  -5.862091  -0.815857   1.279004
