%chk=/home/boittier/MDCM/nms_sampling/acrolein_geom.xyz.dir/acrolein_2123.chk
%nproc=8
%mem=16000MB
#p B2PLYPD3/Def2QZVP 

acrolein

0 1
C  -4.988658  -1.381941   0.844289
O  -3.934244  -0.856254   0.701682
C  -5.183570  -2.849941   1.078973
C  -6.411948  -3.294176   1.455754
H  -4.422427  -3.508995   1.157781
H  -7.430106  -2.603856   1.388331
H  -6.524916  -4.331866   1.638590
H  -5.950711  -0.832832   0.899665

