%chk=/home/boittier/MDCM/nms_sampling/acrolein_geom.xyz.dir/acrolein_301.chk
%nproc=8
%mem=16000MB
#p B2PLYPD3/Def2QZVP 

acrolein

0 1
C  -5.010178  -1.378667   0.913080
O  -3.941402  -0.876206   0.637301
C  -5.186261  -2.800061   1.177040
C  -6.391826  -3.323605   1.385628
H  -4.329539  -3.425031   1.084830
H  -7.265212  -2.651937   1.364180
H  -6.581450  -4.398210   1.522692
H  -5.971110  -0.785763   0.985300

