%chk=/home/boittier/MDCM/nms_sampling/acrolein_geom.xyz.dir/acrolein_1068.chk
%nproc=8
%mem=16000MB
#p B2PLYPD3/Def2QZVP 

acrolein

0 1
C  -5.004850  -1.409967   0.937998
O  -3.943138  -0.850042   0.626244
C  -5.187367  -2.821900   1.164703
C  -6.396194  -3.310753   1.372730
H  -4.301738  -3.464513   1.149393
H  -7.306516  -2.624956   1.294603
H  -6.544912  -4.309516   1.653718
H  -5.977157  -0.807188   1.036296
