%chk=/home/boittier/MDCM/nms_sampling/acrolein_geom.xyz.dir/acrolein_2558.chk
%nproc=8
%mem=16000MB
#p B2PLYPD3/Def2QZVP 

acrolein

0 1
C  -5.004745  -1.415064   0.861634
O  -3.945479  -0.872652   0.707764
C  -5.209115  -2.755244   1.104437
C  -6.379149  -3.335954   1.431309
H  -4.255737  -3.419769   0.930864
H  -7.138790  -2.641226   1.639754
H  -6.592481  -4.448963   1.676362
H  -6.043226  -0.776307   0.542142

