%chk=/home/boittier/MDCM/nms_sampling/acrolein_geom.xyz.dir/acrolein_1934.chk
%nproc=8
%mem=16000MB
#p B2PLYPD3/Def2QZVP 

acrolein

0 1
C  -5.031693  -1.373587   0.826949
O  -3.955287  -0.883103   0.727743
C  -5.180484  -2.801106   1.071988
C  -6.363572  -3.312382   1.440989
H  -4.443872  -3.389724   0.954822
H  -7.211831  -2.736578   1.449822
H  -6.530490  -4.388930   1.950487
H  -5.872136  -0.800168   0.801212

