%chk=/home/boittier/MDCM/nms_sampling/acrolein_geom.xyz.dir/acrolein_668.chk
%nproc=8
%mem=16000MB
#p B2PLYPD3/Def2QZVP 

acrolein

0 1
C  -4.997077  -1.389030   0.905618
O  -3.927412  -0.860846   0.647989
C  -5.191429  -2.832613   1.167318
C  -6.424813  -3.302300   1.384607
H  -4.294266  -3.468969   1.070820
H  -7.262109  -2.634880   1.452111
H  -6.592020  -4.350002   1.570677
H  -5.935010  -0.796728   0.910029

