%chk=/home/boittier/MDCM/nms_sampling/acrolein_geom.xyz.dir/acrolein_1373.chk
%nproc=8
%mem=16000MB
#p B2PLYPD3/Def2QZVP 

acrolein

0 1
C  -5.010154  -1.380461   0.902946
O  -3.944741  -0.865196   0.634903
C  -5.186785  -2.822929   1.185801
C  -6.403351  -3.309725   1.387007
H  -4.227653  -3.484309   1.143118
H  -7.308790  -2.643888   1.418982
H  -6.541973  -4.377969   1.400824
H  -5.886763  -0.813404   1.021058

