%chk=/home/boittier/MDCM/nms_sampling/acrolein_geom.xyz.dir/acrolein_1055.chk
%nproc=8
%mem=16000MB
#p B2PLYPD3/Def2QZVP 

acrolein

0 1
C  -4.994179  -1.405840   0.866836
O  -3.925882  -0.861026   0.679285
C  -5.211083  -2.813902   1.131275
C  -6.417023  -3.310161   1.416461
H  -4.296559  -3.458345   1.102495
H  -7.245850  -2.621160   1.553357
H  -6.573888  -4.323615   1.534843
H  -5.888829  -0.781323   0.822623
