%chk=/home/boittier/MDCM/nms_sampling/acrolein_geom.xyz.dir/acrolein_409.chk
%nproc=8
%mem=16000MB
#p B2PLYPD3/Def2QZVP 

acrolein

0 1
C  -5.005988  -1.385860   0.924784
O  -3.929456  -0.870935   0.634559
C  -5.198279  -2.808533   1.168876
C  -6.402766  -3.321369   1.388272
H  -4.309196  -3.415640   1.113701
H  -7.271616  -2.650308   1.375279
H  -6.567389  -4.362978   1.506520
H  -5.973346  -0.761650   0.930719

