%chk=/home/boittier/MDCM/nms_sampling/acrolein_geom.xyz.dir/acrolein_2511.chk
%nproc=8
%mem=16000MB
#p B2PLYPD3/Def2QZVP 

acrolein

0 1
C  -5.019258  -1.363695   0.937386
O  -3.945695  -0.892709   0.620486
C  -5.169413  -2.779513   1.139707
C  -6.372479  -3.337984   1.389514
H  -4.431287  -3.424057   1.380686
H  -7.253563  -2.680878   1.288387
H  -6.651140  -4.432807   1.513463
H  -6.050043  -0.694817   1.123840

