%chk=/home/boittier/MDCM/nms_sampling/acrolein_geom.xyz.dir/acrolein_1030.chk
%nproc=8
%mem=16000MB
#p B2PLYPD3/Def2QZVP 

acrolein

0 1
C  -4.984952  -1.410332   0.907280
O  -3.924826  -0.850830   0.639746
C  -5.207462  -2.827491   1.169982
C  -6.430089  -3.304647   1.392457
H  -4.274774  -3.475279   1.154451
H  -7.314107  -2.650375   1.436233
H  -6.579621  -4.255734   1.433699
H  -5.865361  -0.831420   0.955883
