%chk=/home/boittier/MDCM/nms_sampling/acrolein_geom.xyz.dir/acrolein_2273.chk
%nproc=8
%mem=16000MB
#p B2PLYPD3/Def2QZVP 

acrolein

0 1
C  -4.992924  -1.400414   0.875356
O  -3.925430  -0.844550   0.690840
C  -5.202448  -2.843849   1.074995
C  -6.423007  -3.315288   1.425903
H  -4.296924  -3.511552   1.166116
H  -7.406952  -2.652938   1.392096
H  -6.488230  -4.112484   1.845515
H  -5.887114  -0.830549   0.886979
