%chk=/home/boittier/MDCM/nms_sampling/acrolein_geom.xyz.dir/acrolein_1355.chk
%nproc=8
%mem=16000MB
#p B2PLYPD3/Def2QZVP 

acrolein

0 1
C  -5.015936  -1.376354   0.857658
O  -3.938876  -0.877958   0.692913
C  -5.203620  -2.799111   1.089424
C  -6.389157  -3.325513   1.425583
H  -4.243653  -3.451577   1.180184
H  -7.175303  -2.648080   1.474354
H  -6.576913  -4.374242   1.731905
H  -5.948269  -0.783147   0.905869

