%chk=/home/boittier/MDCM/nms_sampling/acrolein_geom.xyz.dir/acrolein_2231.chk
%nproc=8
%mem=16000MB
#p B2PLYPD3/Def2QZVP 

acrolein

0 1
C  -5.020761  -1.377093   0.952050
O  -3.944842  -0.883754   0.618424
C  -5.208898  -2.806569   1.142222
C  -6.375595  -3.310205   1.360293
H  -4.259872  -3.391480   1.349471
H  -7.051451  -2.707794   1.372542
H  -6.618613  -4.415097   1.688332
H  -5.945413  -0.727965   1.073209
