%chk=/home/boittier/MDCM/nms_sampling/acrolein_geom.xyz.dir/acrolein_42.chk
%nproc=8
%mem=16000MB
#p B2PLYPD3/Def2QZVP 

acrolein

0 1
C  -5.008560  -1.379668   0.906606
O  -3.937114  -0.875438   0.647247
C  -5.200387  -2.813163   1.154252
C  -6.395495  -3.310222   1.394035
H  -4.312426  -3.424645   1.107823
H  -7.183248  -2.669448   1.339963
H  -6.595928  -4.381906   1.608724
H  -5.929366  -0.788213   0.991049

