%chk=/home/boittier/MDCM/nms_sampling/acrolein_geom.xyz.dir/acrolein_1946.chk
%nproc=8
%mem=16000MB
#p B2PLYPD3/Def2QZVP 

acrolein

0 1
C  -5.003147  -1.397359   0.932293
O  -3.959868  -0.841473   0.631755
C  -5.143169  -2.860448   1.159202
C  -6.412757  -3.301259   1.367424
H  -4.206552  -3.493523   1.136529
H  -7.446125  -2.654564   1.295688
H  -6.615946  -4.281952   1.751341
H  -5.951978  -0.733067   1.060284

