%chk=/home/boittier/MDCM/nms_sampling/acrolein_geom.xyz.dir/acrolein_431.chk
%nproc=8
%mem=16000MB
#p B2PLYPD3/Def2QZVP 

acrolein

0 1
C  -5.014949  -1.373494   0.900053
O  -3.941415  -0.878756   0.648114
C  -5.191092  -2.806050   1.152436
C  -6.392189  -3.321544   1.383102
H  -4.286489  -3.432273   1.175383
H  -7.245278  -2.652227   1.421444
H  -6.572651  -4.395857   1.628516
H  -5.923557  -0.756955   1.025995
