%chk=/home/boittier/MDCM/nms_sampling/acrolein_geom.xyz.dir/acrolein_2243.chk
%nproc=8
%mem=16000MB
#p B2PLYPD3/Def2QZVP 

acrolein

0 1
C  -4.975353  -1.401177   0.949280
O  -3.920571  -0.870167   0.604717
C  -5.220094  -2.799961   1.206835
C  -6.437598  -3.313157   1.367107
H  -4.266044  -3.383634   1.089018
H  -7.273722  -2.660384   1.181505
H  -6.580858  -4.383509   1.511464
H  -5.852593  -0.813979   1.131222
