%chk=/home/boittier/MDCM/nms_sampling/acrolein_geom.xyz.dir/acrolein_1137.chk
%nproc=8
%mem=16000MB
#p B2PLYPD3/Def2QZVP 

acrolein

0 1
C  -4.998479  -1.393557   0.922727
O  -3.932569  -0.853628   0.632765
C  -5.190884  -2.851681   1.177360
C  -6.423529  -3.293782   1.372565
H  -4.319698  -3.485690   1.155150
H  -7.284720  -2.636354   1.511733
H  -6.512266  -4.285983   1.480888
H  -5.891281  -0.768609   0.906229
