%chk=/home/boittier/MDCM/nms_sampling/acrolein_geom.xyz.dir/acrolein_1564.chk
%nproc=8
%mem=16000MB
#p B2PLYPD3/Def2QZVP 

acrolein

0 1
C  -5.009920  -1.384123   0.913438
O  -3.936244  -0.876614   0.636578
C  -5.205938  -2.803549   1.170382
C  -6.390778  -3.310296   1.390469
H  -4.335757  -3.412322   1.157104
H  -7.193490  -2.701194   1.422057
H  -6.570577  -4.392156   1.442138
H  -5.913063  -0.802283   0.955582

