%chk=/home/boittier/MDCM/nms_sampling/acrolein_geom.xyz.dir/acrolein_1305.chk
%nproc=8
%mem=16000MB
#p B2PLYPD3/Def2QZVP 

acrolein

0 1
C  -5.012883  -1.372912   0.865372
O  -3.938381  -0.880446   0.678518
C  -5.189179  -2.804821   1.118288
C  -6.396354  -3.317821   1.405040
H  -4.263377  -3.405855   1.159064
H  -7.261868  -2.700985   1.458549
H  -6.608891  -4.440245   1.723183
H  -5.945638  -0.738507   0.987900

