%chk=/home/boittier/MDCM/nms_sampling/acrolein_geom.xyz.dir/acrolein_556.chk
%nproc=8
%mem=16000MB
#p B2PLYPD3/Def2QZVP 

acrolein

0 1
C  -5.004345  -1.376094   0.912366
O  -3.930200  -0.876428   0.644446
C  -5.202119  -2.811594   1.155149
C  -6.406060  -3.311778   1.386866
H  -4.301943  -3.427272   1.120304
H  -7.214081  -2.681918   1.364138
H  -6.582805  -4.394036   1.629435
H  -5.944031  -0.790904   0.982238
