%chk=/home/boittier/MDCM/nms_sampling/acrolein_geom.xyz.dir/acrolein_47.chk
%nproc=8
%mem=16000MB
#p B2PLYPD3/Def2QZVP 

acrolein

0 1
C  -5.002458  -1.391393   0.888281
O  -3.939888  -0.857532   0.669445
C  -5.189340  -2.830974   1.126177
C  -6.404521  -3.306469   1.408061
H  -4.275967  -3.474472   1.105320
H  -7.323271  -2.668903   1.435092
H  -6.550817  -4.315531   1.659361
H  -5.944000  -0.795494   0.880684

