%chk=/home/boittier/MDCM/nms_sampling/acrolein_geom.xyz.dir/acrolein_2118.chk
%nproc=8
%mem=16000MB
#p B2PLYPD3/Def2QZVP 

acrolein

0 1
C  -4.974707  -1.400471   0.936697
O  -3.914300  -0.840939   0.619658
C  -5.199247  -2.880373   1.189378
C  -6.453276  -3.275887   1.348035
H  -4.273090  -3.457507   1.122916
H  -7.251262  -2.586540   1.350940
H  -6.628546  -4.298226   1.687445
H  -5.978464  -0.834960   1.089374

