%chk=/home/boittier/MDCM/nms_sampling/acrolein_geom.xyz.dir/acrolein_1085.chk
%nproc=8
%mem=16000MB
#p B2PLYPD3/Def2QZVP 

acrolein

0 1
C  -4.998448  -1.408825   0.882023
O  -3.937734  -0.849457   0.682338
C  -5.187601  -2.826670   1.099121
C  -6.421408  -3.304517   1.418501
H  -4.231971  -3.469235   1.122845
H  -7.279621  -2.635358   1.437631
H  -6.551449  -4.335912   1.745896
H  -5.933248  -0.814216   0.842700

