%chk=/home/boittier/MDCM/nms_sampling/acrolein_geom.xyz.dir/acrolein_1159.chk
%nproc=8
%mem=16000MB
#p B2PLYPD3/Def2QZVP 

acrolein

0 1
C  -5.018105  -1.377034   0.935496
O  -3.937938  -0.868351   0.620777
C  -5.187038  -2.818525   1.181442
C  -6.387077  -3.314714   1.355883
H  -4.346067  -3.461032   1.156364
H  -7.244481  -2.656531   1.338345
H  -6.530207  -4.364663   1.659016
H  -6.033513  -0.796280   1.092195
