%chk=/home/boittier/MDCM/nms_sampling/acrolein_geom.xyz.dir/acrolein_1573.chk
%nproc=8
%mem=16000MB
#p B2PLYPD3/Def2QZVP 

acrolein

0 1
C  -5.014969  -1.365996   0.923157
O  -3.929028  -0.878569   0.625762
C  -5.183193  -2.817836   1.201091
C  -6.402017  -3.316357   1.378178
H  -4.384540  -3.443592   1.039570
H  -7.294476  -2.652306   1.346173
H  -6.558785  -4.395212   1.453035
H  -5.963072  -0.740319   0.987921
