%chk=/home/boittier/MDCM/nms_sampling/acrolein_geom.xyz.dir/acrolein_44.chk
%nproc=8
%mem=16000MB
#p B2PLYPD3/Def2QZVP 

acrolein

0 1
C  -5.004764  -1.376445   0.908781
O  -3.930891  -0.875735   0.644356
C  -5.194368  -2.811434   1.159081
C  -6.402031  -3.319871   1.385075
H  -4.362043  -3.438283   1.118046
H  -7.257235  -2.656449   1.366133
H  -6.568130  -4.351722   1.625464
H  -5.976339  -0.749834   1.004089

