%chk=/home/boittier/MDCM/nms_sampling/acrolein_geom.xyz.dir/acrolein_258.chk
%nproc=8
%mem=16000MB
#p B2PLYPD3/Def2QZVP 

acrolein

0 1
C  -5.003953  -1.375827   0.911970
O  -3.929902  -0.878671   0.637856
C  -5.204674  -2.808629   1.167273
C  -6.399464  -3.317934   1.380288
H  -4.355400  -3.442453   1.151421
H  -7.239054  -2.666083   1.388267
H  -6.567870  -4.352100   1.569842
H  -5.936717  -0.755320   1.023300
