%chk=/home/boittier/MDCM/nms_sampling/acrolein_geom.xyz.dir/acrolein_2510.chk
%nproc=8
%mem=16000MB
#p B2PLYPD3/Def2QZVP 

acrolein

0 1
C  -4.998663  -1.377918   0.877353
O  -3.927587  -0.872937   0.691457
C  -5.188885  -2.829039   1.078577
C  -6.432118  -3.298326   1.446289
H  -4.333006  -3.407892   1.088778
H  -7.234588  -2.624231   1.302588
H  -6.632599  -4.401607   1.756547
H  -5.791263  -0.843828   0.837528
