%chk=/home/boittier/MDCM/nms_sampling/acrolein_geom.xyz.dir/acrolein_1894.chk
%nproc=8
%mem=16000MB
#p B2PLYPD3/Def2QZVP 

acrolein

0 1
C  -5.027321  -1.369618   0.910146
O  -3.949782  -0.893603   0.628524
C  -5.182893  -2.758170   1.196142
C  -6.370078  -3.351419   1.355949
H  -4.348546  -3.340261   1.177686
H  -7.258478  -2.660170   1.533018
H  -6.571006  -4.437078   1.489130
H  -5.917032  -0.830439   1.036243
