%chk=/home/boittier/MDCM/nms_sampling/acrolein_geom.xyz.dir/acrolein_2455.chk
%nproc=8
%mem=16000MB
#p B2PLYPD3/Def2QZVP 

acrolein

0 1
C  -4.992588  -1.394692   0.982322
O  -3.951872  -0.845583   0.602151
C  -5.178835  -2.865106   1.172342
C  -6.416514  -3.290721   1.348354
H  -4.331038  -3.447626   1.188546
H  -7.344685  -2.688024   1.266858
H  -6.457005  -4.200246   1.711860
H  -5.869254  -0.842052   1.020391
