%chk=/home/boittier/MDCM/nms_sampling/acrolein_geom.xyz.dir/acrolein_2276.chk
%nproc=8
%mem=16000MB
#p B2PLYPD3/Def2QZVP 

acrolein

0 1
C  -4.987666  -1.411464   0.978473
O  -3.915853  -0.854676   0.592988
C  -5.220295  -2.827168   1.182903
C  -6.429147  -3.310733   1.363836
H  -4.281291  -3.398103   1.254677
H  -7.340818  -2.611188   1.219948
H  -6.538623  -4.270667   1.500401
H  -5.838223  -0.788691   1.086434

