%chk=/home/boittier/MDCM/nms_sampling/acrolein_geom.xyz.dir/acrolein_547.chk
%nproc=8
%mem=16000MB
#p B2PLYPD3/Def2QZVP 

acrolein

0 1
C  -5.004581  -1.391445   0.877976
O  -3.935263  -0.861852   0.675089
C  -5.196284  -2.823162   1.125724
C  -6.406791  -3.310017   1.406982
H  -4.286710  -3.440064   1.083396
H  -7.287008  -2.652746   1.431742
H  -6.535106  -4.333509   1.706868
H  -5.918240  -0.806659   0.910833
