%chk=/home/boittier/MDCM/nms_sampling/acrolein_geom.xyz.dir/acrolein_29.chk
%nproc=8
%mem=16000MB
#p B2PLYPD3/Def2QZVP 

acrolein

0 1
C  -5.000184  -1.403797   0.908252
O  -3.939007  -0.854182   0.642018
C  -5.191234  -2.828631   1.174422
C  -6.407624  -3.299697   1.389514
H  -4.302241  -3.466586   1.075036
H  -7.259456  -2.638486   1.398206
H  -6.567174  -4.343586   1.505532
H  -5.939118  -0.811759   0.946092

