%chk=/home/boittier/MDCM/nms_sampling/acrolein_geom.xyz.dir/acrolein_381.chk
%nproc=8
%mem=16000MB
#p B2PLYPD3/Def2QZVP 

acrolein

0 1
C  -5.008899  -1.383620   0.885469
O  -3.937817  -0.868242   0.668057
C  -5.188500  -2.819988   1.123294
C  -6.401237  -3.310572   1.414674
H  -4.296646  -3.425492   1.141598
H  -7.214222  -2.671330   1.397343
H  -6.594071  -4.367393   1.622359
H  -5.976464  -0.785098   0.927164

