%chk=/home/boittier/MDCM/nms_sampling/acrolein_geom.xyz.dir/acrolein_2152.chk
%nproc=8
%mem=16000MB
#p B2PLYPD3/Def2QZVP 

acrolein

0 1
C  -5.026663  -1.340682   0.840682
O  -3.905590  -0.898780   0.701542
C  -5.215811  -2.789118   1.109064
C  -6.389813  -3.356517   1.434415
H  -4.291756  -3.392816   1.099616
H  -7.289148  -2.643827   1.632396
H  -6.538592  -4.384037   1.537956
H  -6.076030  -0.671317   0.750821

