%chk=/home/boittier/MDCM/nms_sampling/acrolein_geom.xyz.dir/acrolein_964.chk
%nproc=8
%mem=16000MB
#p B2PLYPD3/Def2QZVP 

acrolein

0 1
C  -5.008975  -1.366820   0.857490
O  -3.938539  -0.883560   0.688385
C  -5.190375  -2.803659   1.138139
C  -6.390258  -3.325208   1.416251
H  -4.407956  -3.435450   0.961722
H  -7.269914  -2.636382   1.497777
H  -6.565751  -4.359880   1.640907
H  -5.927351  -0.776433   0.816932
