%chk=/home/boittier/MDCM/nms_sampling/acrolein_geom.xyz.dir/acrolein_1038.chk
%nproc=8
%mem=16000MB
#p B2PLYPD3/Def2QZVP 

acrolein

0 1
C  -4.987902  -1.400769   0.852185
O  -3.922424  -0.851401   0.682429
C  -5.193021  -2.842538   1.140462
C  -6.434929  -3.291671   1.408253
H  -4.306092  -3.482912   1.082511
H  -7.259004  -2.657998   1.554123
H  -6.621566  -4.317198   1.582143
H  -5.953253  -0.815753   0.905576
