%chk=/home/boittier/MDCM/nms_sampling/acrolein_geom.xyz.dir/acrolein_2572.chk
%nproc=8
%mem=16000MB
#p B2PLYPD3/Def2QZVP 

acrolein

0 1
C  -5.034641  -1.363190   0.943770
O  -3.946356  -0.872926   0.618528
C  -5.148819  -2.836310   1.147424
C  -6.387410  -3.310368   1.358634
H  -4.378494  -3.414608   1.357241
H  -7.294785  -2.646999   1.362701
H  -6.559432  -4.434365   1.682166
H  -6.022338  -0.698227   1.133306
