%chk=/home/boittier/MDCM/nms_sampling/acrolein_geom.xyz.dir/acrolein_2032.chk
%nproc=8
%mem=16000MB
#p B2PLYPD3/Def2QZVP 

acrolein

0 1
C  -5.006736  -1.393504   0.976347
O  -3.960838  -0.841954   0.592367
C  -5.159223  -2.849167   1.194987
C  -6.407747  -3.310740   1.351796
H  -4.167940  -3.457374   1.162008
H  -7.361242  -2.644587   1.123891
H  -6.479567  -4.282511   1.642764
H  -6.019724  -0.834606   1.178132

