%chk=/home/boittier/MDCM/nms_sampling/acrolein_geom.xyz.dir/acrolein_2528.chk
%nproc=8
%mem=16000MB
#p B2PLYPD3/Def2QZVP 

acrolein

0 1
C  -5.011065  -1.352017   0.919301
O  -3.907702  -0.897661   0.641084
C  -5.204993  -2.781602   1.186129
C  -6.414671  -3.330667   1.380688
H  -4.296204  -3.363533   1.009001
H  -7.226565  -2.742400   1.520434
H  -6.623706  -4.514169   1.466325
H  -6.040240  -0.760517   0.783105

