%chk=/home/boittier/MDCM/nms_sampling/acrolein_geom.xyz.dir/acrolein_2601.chk
%nproc=8
%mem=16000MB
#p B2PLYPD3/Def2QZVP 

acrolein

0 1
C  -4.989043  -1.404298   0.864339
O  -3.931803  -0.851257   0.674517
C  -5.182600  -2.839484   1.119167
C  -6.449229  -3.303516   1.395948
H  -4.204998  -3.506586   1.200022
H  -7.391014  -2.591355   1.423023
H  -6.611066  -4.289183   1.782226
H  -5.733822  -0.765289   1.091499

