%chk=/home/boittier/MDCM/nms_sampling/acrolein_geom.xyz.dir/acrolein_567.chk
%nproc=8
%mem=16000MB
#p B2PLYPD3/Def2QZVP 

acrolein

0 1
C  -4.997062  -1.391215   0.879723
O  -3.930287  -0.861148   0.669691
C  -5.197437  -2.837095   1.147849
C  -6.419834  -3.301039   1.400700
H  -4.306707  -3.458784   1.038098
H  -7.254806  -2.629759   1.483820
H  -6.570547  -4.316828   1.617650
H  -5.891219  -0.773994   0.871083
