%chk=/home/boittier/MDCM/nms_sampling/acrolein_geom.xyz.dir/acrolein_2051.chk
%nproc=8
%mem=16000MB
#p B2PLYPD3/Def2QZVP 

acrolein

0 1
C  -4.981229  -1.412902   0.810061
O  -3.910393  -0.841739   0.726560
C  -5.211113  -2.847416   1.088023
C  -6.450233  -3.286697   1.477271
H  -4.199021  -3.474911   1.031366
H  -7.309278  -2.643694   1.603782
H  -6.567223  -4.352696   1.442968
H  -5.958423  -0.830929   0.661382

