%chk=/home/boittier/MDCM/nms_sampling/acrolein_geom.xyz.dir/acrolein_281.chk
%nproc=8
%mem=16000MB
#p B2PLYPD3/Def2QZVP 

acrolein

0 1
C  -4.998935  -1.388722   0.880114
O  -3.934183  -0.863833   0.669009
C  -5.194655  -2.829953   1.146590
C  -6.409750  -3.309025   1.405690
H  -4.325949  -3.434352   1.037486
H  -7.338874  -2.640059   1.445984
H  -6.552189  -4.313906   1.604861
H  -5.878937  -0.773701   0.885741

