%chk=/home/boittier/MDCM/nms_sampling/acrolein_geom.xyz.dir/acrolein_2427.chk
%nproc=8
%mem=16000MB
#p B2PLYPD3/Def2QZVP 

acrolein

0 1
C  -5.020666  -1.328796   0.953036
O  -3.918238  -0.896286   0.606519
C  -5.206324  -2.822809   1.201725
C  -6.382706  -3.327132   1.365692
H  -4.371704  -3.390127   1.087074
H  -7.175511  -2.673007   1.212282
H  -6.552528  -4.397530   1.534657
H  -6.145184  -0.732454   1.084173
