%chk=/home/boittier/MDCM/nms_sampling/acrolein_geom.xyz.dir/acrolein_408.chk
%nproc=8
%mem=16000MB
#p B2PLYPD3/Def2QZVP 

acrolein

0 1
C  -5.006331  -1.386374   0.911052
O  -3.939399  -0.859454   0.638505
C  -5.178370  -2.837070   1.163605
C  -6.412124  -3.302932   1.387361
H  -4.293883  -3.450275   1.153737
H  -7.306413  -2.648609   1.350289
H  -6.560395  -4.349074   1.555850
H  -5.924853  -0.796189   1.034613
