%chk=/home/boittier/MDCM/nms_sampling/acrolein_geom.xyz.dir/acrolein_996.chk
%nproc=8
%mem=16000MB
#p B2PLYPD3/Def2QZVP 

acrolein

0 1
C  -5.007113  -1.393903   0.878730
O  -3.947060  -0.859194   0.685717
C  -5.184119  -2.827433   1.107803
C  -6.398564  -3.312399   1.417855
H  -4.305155  -3.465807   1.060330
H  -7.340155  -2.659490   1.483048
H  -6.549290  -4.265152   1.722535
H  -5.857258  -0.780388   0.778200

