%chk=/home/boittier/MDCM/nms_sampling/acrolein_geom.xyz.dir/acrolein_779.chk
%nproc=8
%mem=16000MB
#p B2PLYPD3/Def2QZVP 

acrolein

0 1
C  -5.007969  -1.391748   0.877303
O  -3.944516  -0.862444   0.671430
C  -5.181533  -2.829151   1.143023
C  -6.401420  -3.303598   1.406335
H  -4.336979  -3.432329   1.045567
H  -7.285470  -2.663145   1.458765
H  -6.553555  -4.341885   1.614880
H  -5.893637  -0.777740   0.883380

