%chk=/home/boittier/MDCM/nms_sampling/acrolein_geom.xyz.dir/acrolein_2320.chk
%nproc=8
%mem=16000MB
#p B2PLYPD3/Def2QZVP 

acrolein

0 1
C  -4.976646  -1.417898   0.988786
O  -3.934638  -0.851835   0.582204
C  -5.191583  -2.829236   1.240838
C  -6.413939  -3.287218   1.321956
H  -4.394463  -3.482676   1.111722
H  -7.353200  -2.618822   1.486384
H  -6.665208  -4.390263   1.413246
H  -5.934691  -0.775656   0.909793

