%chk=/home/boittier/MDCM/nms_sampling/acrolein_geom.xyz.dir/acrolein_827.chk
%nproc=8
%mem=16000MB
#p B2PLYPD3/Def2QZVP 

acrolein

0 1
C  -4.999993  -1.396049   0.881310
O  -3.941277  -0.861273   0.670589
C  -5.188170  -2.828243   1.135491
C  -6.404601  -3.298980   1.407854
H  -4.324055  -3.447548   1.064946
H  -7.284334  -2.661363   1.420365
H  -6.587179  -4.365145   1.650321
H  -5.909475  -0.777828   0.904352

