%chk=/home/boittier/MDCM/nms_sampling/acrolein_geom.xyz.dir/acrolein_870.chk
%nproc=8
%mem=16000MB
#p B2PLYPD3/Def2QZVP 

acrolein

0 1
C  -5.004005  -1.392130   0.879900
O  -3.937775  -0.861142   0.675671
C  -5.182744  -2.823964   1.119323
C  -6.406957  -3.312626   1.409979
H  -4.302509  -3.427197   1.109345
H  -7.333564  -2.663833   1.446063
H  -6.578836  -4.330449   1.693899
H  -5.937589  -0.777630   0.889736
