%chk=/home/boittier/MDCM/nms_sampling/acrolein_geom.xyz.dir/acrolein_2690.chk
%nproc=8
%mem=16000MB
#p B2PLYPD3/Def2QZVP 

acrolein

0 1
C  -5.006972  -1.375591   0.976987
O  -3.923209  -0.860722   0.585581
C  -5.169581  -2.843406   1.191425
C  -6.436046  -3.309354   1.361776
H  -4.295901  -3.502790   1.334971
H  -7.422550  -2.649855   1.268530
H  -6.532852  -4.330412   1.380226
H  -5.918497  -0.714845   1.123553

