%chk=/home/boittier/MDCM/nms_sampling/acrolein_geom.xyz.dir/acrolein_1105.chk
%nproc=8
%mem=16000MB
#p B2PLYPD3/Def2QZVP 

acrolein

0 1
C  -4.994547  -1.389891   0.915338
O  -3.925282  -0.863150   0.629613
C  -5.192708  -2.829927   1.165442
C  -6.431578  -3.304667   1.384432
H  -4.268092  -3.476023   1.219456
H  -7.306101  -2.612164   1.292508
H  -6.618273  -4.360678   1.542805
H  -5.863764  -0.766423   1.136164
