%chk=/home/boittier/MDCM/nms_sampling/acrolein_geom.xyz.dir/acrolein_884.chk
%nproc=8
%mem=16000MB
#p B2PLYPD3/Def2QZVP 

acrolein

0 1
C  -5.012236  -1.380603   0.914013
O  -3.938878  -0.872541   0.636184
C  -5.195093  -2.812062   1.180828
C  -6.392177  -3.313524   1.385863
H  -4.335343  -3.445136   1.077256
H  -7.215885  -2.658612   1.375152
H  -6.544410  -4.372746   1.494404
H  -5.957308  -0.789005   0.969359
