%chk=/home/boittier/MDCM/nms_sampling/acrolein_geom.xyz.dir/acrolein_645.chk
%nproc=8
%mem=16000MB
#p B2PLYPD3/Def2QZVP 

acrolein

0 1
C  -4.996208  -1.394343   0.892976
O  -3.930404  -0.860616   0.666501
C  -5.195795  -2.827636   1.122412
C  -6.414724  -3.305321   1.409784
H  -4.329213  -3.431221   1.128269
H  -7.271404  -2.637968   1.397959
H  -6.567951  -4.336925   1.664291
H  -5.943694  -0.807685   0.904462

