%chk=/home/boittier/MDCM/nms_sampling/acrolein_geom.xyz.dir/acrolein_1841.chk
%nproc=8
%mem=16000MB
#p B2PLYPD3/Def2QZVP 

acrolein

0 1
C  -5.026791  -1.365196   0.896814
O  -3.955128  -0.884637   0.645282
C  -5.181689  -2.776548   1.193317
C  -6.353958  -3.337550   1.401320
H  -4.340659  -3.443608   0.943131
H  -7.329026  -2.686469   1.313681
H  -6.515510  -4.458234   1.448259
H  -6.052933  -0.809402   0.954125
