%chk=/home/boittier/MDCM/nms_sampling/acrolein_geom.xyz.dir/acrolein_87.chk
%nproc=8
%mem=16000MB
#p B2PLYPD3/Def2QZVP 

acrolein

0 1
C  -5.003986  -1.389590   0.899398
O  -3.941609  -0.862553   0.649387
C  -5.185014  -2.825034   1.150169
C  -6.402561  -3.312100   1.387522
H  -4.326073  -3.445715   1.170801
H  -7.282837  -2.639965   1.411575
H  -6.552045  -4.320490   1.616840
H  -5.948861  -0.781102   1.015489

