%chk=/home/boittier/MDCM/nms_sampling/acrolein_geom.xyz.dir/acrolein_789.chk
%nproc=8
%mem=16000MB
#p B2PLYPD3/Def2QZVP 

acrolein

0 1
C  -4.998257  -1.397871   0.869588
O  -3.938396  -0.858968   0.680227
C  -5.198547  -2.824420   1.124809
C  -6.407276  -3.305612   1.412855
H  -4.274905  -3.467103   1.070439
H  -7.274132  -2.656102   1.450573
H  -6.567769  -4.318705   1.679044
H  -5.906474  -0.802133   0.892583

