%chk=/home/boittier/MDCM/nms_sampling/acrolein_geom.xyz.dir/acrolein_1358.chk
%nproc=8
%mem=16000MB
#p B2PLYPD3/Def2QZVP 

acrolein

0 1
C  -5.006871  -1.368045   0.929377
O  -3.932739  -0.879137   0.622137
C  -5.193903  -2.808699   1.187177
C  -6.396512  -3.328081   1.368315
H  -4.361905  -3.394688   1.193073
H  -7.228821  -2.656334   1.474620
H  -6.547551  -4.344208   1.432326
H  -6.034965  -0.780390   0.972870

