%chk=/home/boittier/MDCM/nms_sampling/acrolein_geom.xyz.dir/acrolein_304.chk
%nproc=8
%mem=16000MB
#p B2PLYPD3/Def2QZVP 

acrolein

0 1
C  -5.011214  -1.379805   0.910342
O  -3.941812  -0.873733   0.643924
C  -5.197076  -2.812133   1.155831
C  -6.387128  -3.318263   1.385422
H  -4.342692  -3.434970   1.132597
H  -7.229448  -2.644464   1.360005
H  -6.541862  -4.340502   1.633503
H  -5.939036  -0.780300   1.009441

