%chk=/home/boittier/MDCM/nms_sampling/acrolein_geom.xyz.dir/acrolein_1844.chk
%nproc=8
%mem=16000MB
#p B2PLYPD3/Def2QZVP 

acrolein

0 1
C  -4.976949  -1.423591   0.965785
O  -3.914154  -0.835577   0.603504
C  -5.189468  -2.853113   1.212425
C  -6.472572  -3.286255   1.381801
H  -4.170893  -3.451991   1.039909
H  -7.355684  -2.685204   1.315630
H  -6.610946  -4.306313   1.291813
H  -5.884698  -0.784292   0.853799
