%chk=/home/boittier/MDCM/nms_sampling/acrolein_geom.xyz.dir/acrolein_2004.chk
%nproc=8
%mem=16000MB
#p B2PLYPD3/Def2QZVP 

acrolein

0 1
C  -5.015856  -1.393300   0.804681
O  -3.943627  -0.873658   0.726275
C  -5.175496  -2.778918   1.098249
C  -6.394567  -3.330431   1.443188
H  -4.275811  -3.347855   1.008316
H  -7.208616  -2.645452   1.619367
H  -6.635059  -4.480109   1.672809
H  -6.011714  -0.839213   0.788499

