%chk=/home/boittier/MDCM/nms_sampling/acrolein_geom.xyz.dir/acrolein_1090.chk
%nproc=8
%mem=16000MB
#p B2PLYPD3/Def2QZVP 

acrolein

0 1
C  -4.998312  -1.405929   0.932686
O  -3.951362  -0.852092   0.624024
C  -5.184486  -2.837496   1.190662
C  -6.398648  -3.291464   1.363747
H  -4.338606  -3.480173   1.102225
H  -7.302007  -2.644977   1.412796
H  -6.539842  -4.337703   1.540465
H  -5.900594  -0.790460   0.973301

