%chk=/home/boittier/MDCM/nms_sampling/acrolein_geom.xyz.dir/acrolein_2342.chk
%nproc=8
%mem=16000MB
#p B2PLYPD3/Def2QZVP 

acrolein

0 1
C  -5.032187  -1.361249   0.938586
O  -3.945895  -0.896965   0.605314
C  -5.196436  -2.785198   1.177567
C  -6.378183  -3.322958   1.366790
H  -4.187834  -3.378279   1.340722
H  -7.176220  -2.725451   1.246773
H  -6.635345  -4.524096   1.503141
H  -5.849868  -0.714576   1.261447

