%chk=/home/boittier/MDCM/nms_sampling/acrolein_geom.xyz.dir/acrolein_549.chk
%nproc=8
%mem=16000MB
#p B2PLYPD3/Def2QZVP 

acrolein

0 1
C  -4.998297  -1.398643   0.876560
O  -3.938202  -0.861693   0.677996
C  -5.199854  -2.815184   1.114794
C  -6.406381  -3.310639   1.423465
H  -4.279600  -3.451507   1.100306
H  -7.259792  -2.637003   1.392657
H  -6.563867  -4.341931   1.653863
H  -5.914241  -0.809246   0.892143
