%chk=/home/boittier/MDCM/nms_sampling/acrolein_geom.xyz.dir/acrolein_317.chk
%nproc=8
%mem=16000MB
#p B2PLYPD3/Def2QZVP 

acrolein

0 1
C  -5.006916  -1.377770   0.901030
O  -3.932167  -0.867181   0.652763
C  -5.191942  -2.828701   1.140342
C  -6.412951  -3.315302   1.391557
H  -4.274674  -3.434288   1.185505
H  -7.298488  -2.643883   1.439252
H  -6.550255  -4.316095   1.619247
H  -5.900091  -0.788282   0.966021
