%chk=/home/boittier/MDCM/nms_sampling/acrolein_geom.xyz.dir/acrolein_160.chk
%nproc=8
%mem=16000MB
#p B2PLYPD3/Def2QZVP 

acrolein

0 1
C  -5.013791  -1.381380   0.914542
O  -3.935677  -0.872979   0.644998
C  -5.190418  -2.811186   1.158769
C  -6.398162  -3.314129   1.386724
H  -4.299251  -3.435742   1.104244
H  -7.204630  -2.665947   1.424349
H  -6.596747  -4.395299   1.583334
H  -5.968622  -0.762903   0.908666
