%chk=/home/boittier/MDCM/nms_sampling/acrolein_geom.xyz.dir/acrolein_619.chk
%nproc=8
%mem=16000MB
#p B2PLYPD3/Def2QZVP 

acrolein

0 1
C  -5.003191  -1.384799   0.905775
O  -3.932268  -0.864168   0.651950
C  -5.195505  -2.829336   1.144858
C  -6.412651  -3.306785   1.392543
H  -4.265386  -3.447832   1.134807
H  -7.299845  -2.660893   1.416492
H  -6.586567  -4.333900   1.622874
H  -5.880944  -0.804450   0.933916
