%chk=/home/boittier/MDCM/nms_sampling/acrolein_geom.xyz.dir/acrolein_1895.chk
%nproc=8
%mem=16000MB
#p B2PLYPD3/Def2QZVP 

acrolein

0 1
C  -5.024736  -1.379919   0.912397
O  -3.924521  -0.886574   0.613831
C  -5.210247  -2.762481   1.221519
C  -6.365543  -3.352670   1.370609
H  -4.382976  -3.424858   1.151465
H  -7.235570  -2.672345   1.371195
H  -6.534824  -4.377030   1.306276
H  -6.117192  -0.701517   1.142759

