%chk=/home/boittier/MDCM/nms_sampling/acrolein_geom.xyz.dir/acrolein_66.chk
%nproc=8
%mem=16000MB
#p B2PLYPD3/Def2QZVP 

acrolein

0 1
C  -5.002329  -1.384150   0.879220
O  -3.931494  -0.866027   0.677389
C  -5.194518  -2.825949   1.114052
C  -6.412250  -3.311983   1.419285
H  -4.316419  -3.432835   1.105545
H  -7.304580  -2.647306   1.408966
H  -6.553913  -4.317292   1.675653
H  -5.892757  -0.796694   0.884442

