%chk=/home/boittier/MDCM/nms_sampling/acrolein_geom.xyz.dir/acrolein_1695.chk
%nproc=8
%mem=16000MB
#p B2PLYPD3/Def2QZVP 

acrolein

0 1
C  -5.003571  -1.378617   0.858390
O  -3.931114  -0.884691   0.684485
C  -5.208038  -2.784501   1.133368
C  -6.403407  -3.330189   1.410191
H  -4.299563  -3.385025   1.051480
H  -7.182956  -2.658060   1.526329
H  -6.574735  -4.406677   1.638799
H  -5.936228  -0.790355   0.869132
