%chk=/home/boittier/MDCM/nms_sampling/acrolein_geom.xyz.dir/acrolein_812.chk
%nproc=8
%mem=16000MB
#p B2PLYPD3/Def2QZVP 

acrolein

0 1
C  -5.001644  -1.402750   0.928125
O  -3.939047  -0.856432   0.633254
C  -5.191529  -2.824843   1.161237
C  -6.404325  -3.304814   1.388710
H  -4.297739  -3.434414   1.142301
H  -7.262861  -2.636710   1.333472
H  -6.573060  -4.348052   1.547669
H  -5.949396  -0.805424   0.968293

