%chk=/home/boittier/MDCM/nms_sampling/acrolein_geom.xyz.dir/acrolein_527.chk
%nproc=8
%mem=16000MB
#p B2PLYPD3/Def2QZVP 

acrolein

0 1
C  -5.008012  -1.387069   0.912329
O  -3.939458  -0.873930   0.642129
C  -5.190602  -2.796674   1.154886
C  -6.395628  -3.324292   1.393331
H  -4.306934  -3.405527   1.137101
H  -7.240854  -2.660241   1.322108
H  -6.583381  -4.394895   1.588389
H  -5.977752  -0.774766   1.011448

