%chk=/home/boittier/MDCM/nms_sampling/acrolein_geom.xyz.dir/acrolein_1678.chk
%nproc=8
%mem=16000MB
#p B2PLYPD3/Def2QZVP 

acrolein

0 1
C  -5.001592  -1.412441   0.928203
O  -3.946773  -0.853899   0.632890
C  -5.184971  -2.823481   1.147538
C  -6.407269  -3.302962   1.373031
H  -4.278556  -3.419820   1.262820
H  -7.287984  -2.654292   1.415971
H  -6.596054  -4.326645   1.632139
H  -5.843423  -0.800651   1.018555
