%chk=/home/boittier/MDCM/nms_sampling/acrolein_geom.xyz.dir/acrolein_873.chk
%nproc=8
%mem=16000MB
#p B2PLYPD3/Def2QZVP 

acrolein

0 1
C  -5.003513  -1.383333   0.921288
O  -3.929346  -0.874751   0.641746
C  -5.198195  -2.801725   1.148800
C  -6.406257  -3.315812   1.384116
H  -4.320647  -3.429946   1.153617
H  -7.271540  -2.661069   1.377944
H  -6.588346  -4.416578   1.645676
H  -5.933856  -0.798857   0.961300

