%chk=/home/boittier/MDCM/nms_sampling/acrolein_geom.xyz.dir/acrolein_246.chk
%nproc=8
%mem=16000MB
#p B2PLYPD3/Def2QZVP 

acrolein

0 1
C  -5.014926  -1.376792   0.879119
O  -3.940110  -0.878196   0.675964
C  -5.186204  -2.807445   1.129849
C  -6.397434  -3.313879   1.413925
H  -4.316798  -3.438485   1.062680
H  -7.193513  -2.648630   1.484896
H  -6.604756  -4.422707   1.608665
H  -5.922674  -0.762783   0.819142
