%chk=/home/boittier/MDCM/nms_sampling/acrolein_geom.xyz.dir/acrolein_1136.chk
%nproc=8
%mem=16000MB
#p B2PLYPD3/Def2QZVP 

acrolein

0 1
C  -5.003308  -1.386279   0.933177
O  -3.929728  -0.857834   0.625725
C  -5.199453  -2.837261   1.150820
C  -6.412395  -3.305446   1.382097
H  -4.275291  -3.479695   1.279626
H  -7.334484  -2.681166   1.327186
H  -6.521162  -4.277763   1.562925
H  -5.906373  -0.811451   1.068542
