%chk=/home/boittier/MDCM/nms_sampling/acrolein_geom.xyz.dir/acrolein_681.chk
%nproc=8
%mem=16000MB
#p B2PLYPD3/Def2QZVP 

acrolein

0 1
C  -5.000213  -1.380572   0.888722
O  -3.936978  -0.864387   0.661909
C  -5.187094  -2.840971   1.143585
C  -6.412379  -3.301931   1.409995
H  -4.318979  -3.450539   1.105092
H  -7.329742  -2.668130   1.438362
H  -6.560867  -4.317566   1.528707
H  -5.884666  -0.763916   0.890621
