%chk=/home/boittier/MDCM/nms_sampling/acrolein_geom.xyz.dir/acrolein_41.chk
%nproc=8
%mem=16000MB
#p B2PLYPD3/Def2QZVP 

acrolein

0 1
C  -5.009163  -1.384965   0.914456
O  -3.941431  -0.861863   0.636161
C  -5.178601  -2.830270   1.178650
C  -6.406673  -3.305037   1.372934
H  -4.299540  -3.465004   1.110520
H  -7.282720  -2.647787   1.429786
H  -6.558541  -4.363130   1.559929
H  -5.938324  -0.798605   0.984492

