%chk=/home/boittier/MDCM/nms_sampling/acrolein_geom.xyz.dir/acrolein_1275.chk
%nproc=8
%mem=16000MB
#p B2PLYPD3/Def2QZVP 

acrolein

0 1
C  -5.010208  -1.370251   0.928265
O  -3.921038  -0.887103   0.629318
C  -5.212556  -2.791976   1.171107
C  -6.397706  -3.326870   1.382474
H  -4.330140  -3.392425   1.111086
H  -7.257068  -2.671391   1.271029
H  -6.604359  -4.403033   1.590313
H  -5.901633  -0.787512   1.040385
