%chk=/home/boittier/MDCM/nms_sampling/acrolein_geom.xyz.dir/acrolein_2444.chk
%nproc=8
%mem=16000MB
#p B2PLYPD3/Def2QZVP 

acrolein

0 1
C  -5.034536  -1.332581   0.969196
O  -3.911832  -0.905777   0.596153
C  -5.192448  -2.786666   1.197621
C  -6.394244  -3.346575   1.326827
H  -4.322254  -3.369413   1.183252
H  -7.314085  -2.667779   1.249324
H  -6.568957  -4.505706   1.759982
H  -6.014704  -0.673569   1.195640

