%chk=/home/boittier/MDCM/nms_sampling/acrolein_geom.xyz.dir/acrolein_1340.chk
%nproc=8
%mem=16000MB
#p B2PLYPD3/Def2QZVP 

acrolein

0 1
C  -5.014483  -1.370929   0.884852
O  -3.932456  -0.882465   0.664531
C  -5.198280  -2.802459   1.147831
C  -6.392331  -3.323461   1.391875
H  -4.356905  -3.402300   1.064436
H  -7.281777  -2.697786   1.441052
H  -6.546798  -4.366168   1.684114
H  -5.907705  -0.761289   0.944799
