%chk=/home/boittier/MDCM/nms_sampling/acrolein_geom.xyz.dir/acrolein_967.chk
%nproc=8
%mem=16000MB
#p B2PLYPD3/Def2QZVP 

acrolein

0 1
C  -4.989136  -1.415540   0.876221
O  -3.950261  -0.847821   0.674652
C  -5.181944  -2.839002   1.147563
C  -6.409666  -3.284538   1.409530
H  -4.315103  -3.439824   0.987142
H  -7.304957  -2.650276   1.477384
H  -6.619753  -4.359619   1.594305
H  -5.869065  -0.837645   0.819902
