%chk=/home/boittier/MDCM/nms_sampling/acrolein_geom.xyz.dir/acrolein_1776.chk
%nproc=8
%mem=16000MB
#p B2PLYPD3/Def2QZVP 

acrolein

0 1
C  -4.996457  -1.395416   0.853767
O  -3.939256  -0.854335   0.683974
C  -5.183591  -2.849836   1.122209
C  -6.404611  -3.297026   1.425192
H  -4.358152  -3.433678   1.103078
H  -7.364982  -2.609686   1.411469
H  -6.566140  -4.326601   1.619585
H  -5.943145  -0.758397   0.967272
