%chk=/home/boittier/MDCM/nms_sampling/acrolein_geom.xyz.dir/acrolein_203.chk
%nproc=8
%mem=16000MB
#p B2PLYPD3/Def2QZVP 

acrolein

0 1
C  -5.014263  -1.381161   0.907786
O  -3.941640  -0.873702   0.643394
C  -5.186647  -2.809749   1.172499
C  -6.395314  -3.317314   1.381652
H  -4.326941  -3.422968   1.086134
H  -7.260528  -2.670528   1.437888
H  -6.547078  -4.372573   1.553800
H  -5.914931  -0.763511   0.944311

