%chk=/home/boittier/MDCM/nms_sampling/acrolein_geom.xyz.dir/acrolein_1506.chk
%nproc=8
%mem=16000MB
#p B2PLYPD3/Def2QZVP 

acrolein

0 1
C  -4.992206  -1.401589   0.943146
O  -3.934863  -0.849399   0.624652
C  -5.184430  -2.843759   1.176336
C  -6.429479  -3.295769   1.371446
H  -4.269381  -3.497978   1.121945
H  -7.293689  -2.642727   1.409523
H  -6.544163  -4.320666   1.539375
H  -5.952211  -0.767714   0.904149
