%chk=/home/boittier/MDCM/nms_sampling/acrolein_geom.xyz.dir/acrolein_630.chk
%nproc=8
%mem=16000MB
#p B2PLYPD3/Def2QZVP 

acrolein

0 1
C  -5.013642  -1.362172   0.916819
O  -3.929838  -0.881469   0.640658
C  -5.196851  -2.811322   1.158176
C  -6.398369  -3.319119   1.380082
H  -4.309990  -3.453869   1.134185
H  -7.282941  -2.683469   1.372388
H  -6.576833  -4.380235   1.642897
H  -5.924087  -0.777850   0.996233
