%chk=/home/boittier/MDCM/nms_sampling/acrolein_geom.xyz.dir/acrolein_1764.chk
%nproc=8
%mem=16000MB
#p B2PLYPD3/Def2QZVP 

acrolein

0 1
C  -5.021250  -1.371298   0.845078
O  -3.938129  -0.882138   0.691157
C  -5.195917  -2.811159   1.130210
C  -6.379502  -3.316982   1.427055
H  -4.387847  -3.398572   1.044852
H  -7.233553  -2.638368   1.514872
H  -6.552688  -4.396073   1.555795
H  -5.912314  -0.751257   0.860625

