%chk=/home/boittier/MDCM/nms_sampling/acrolein_geom.xyz.dir/acrolein_614.chk
%nproc=8
%mem=16000MB
#p B2PLYPD3/Def2QZVP 

acrolein

0 1
C  -5.013916  -1.381998   0.878729
O  -3.943864  -0.872217   0.669973
C  -5.185862  -2.815125   1.138505
C  -6.390346  -3.313254   1.406176
H  -4.360211  -3.442993   1.110337
H  -7.255702  -2.665008   1.519041
H  -6.562855  -4.348055   1.563637
H  -5.905025  -0.766218   0.862751

