%chk=/home/boittier/MDCM/nms_sampling/acrolein_geom.xyz.dir/acrolein_979.chk
%nproc=8
%mem=16000MB
#p B2PLYPD3/Def2QZVP 

acrolein

0 1
C  -5.018323  -1.352849   0.935618
O  -3.942412  -0.888245   0.629387
C  -5.184785  -2.815462   1.152778
C  -6.386888  -3.317758   1.389129
H  -4.357004  -3.406514   1.191217
H  -7.229393  -2.687724   1.296509
H  -6.586176  -4.393480   1.569603
H  -5.926549  -0.764111   0.999321
