%chk=/home/boittier/MDCM/nms_sampling/acrolein_geom.xyz.dir/acrolein_962.chk
%nproc=8
%mem=16000MB
#p B2PLYPD3/Def2QZVP 

acrolein

0 1
C  -5.002473  -1.400842   0.925623
O  -3.943992  -0.856825   0.636193
C  -5.186472  -2.829981   1.169117
C  -6.406602  -3.299633   1.375836
H  -4.299103  -3.424047   1.121049
H  -7.230348  -2.664317   1.463071
H  -6.601929  -4.323052   1.553139
H  -5.891873  -0.834352   0.894125
