%chk=/home/boittier/MDCM/nms_sampling/acrolein_geom.xyz.dir/acrolein_1824.chk
%nproc=8
%mem=16000MB
#p B2PLYPD3/Def2QZVP 

acrolein

0 1
C  -5.014035  -1.336610   0.932169
O  -3.916348  -0.893555   0.620136
C  -5.199987  -2.811272   1.190843
C  -6.411963  -3.342261   1.366001
H  -4.304741  -3.399996   1.167425
H  -7.245136  -2.687327   1.435033
H  -6.475200  -4.344053   1.462329
H  -6.074137  -0.686082   0.994406
