%chk=/home/boittier/MDCM/nms_sampling/acrolein_geom.xyz.dir/acrolein_2656.chk
%nproc=8
%mem=16000MB
#p B2PLYPD3/Def2QZVP 

acrolein

0 1
C  -4.995177  -1.406127   0.850828
O  -3.964009  -0.839597   0.717122
C  -5.162671  -2.857378   1.068757
C  -6.397446  -3.287402   1.464629
H  -4.384024  -3.517654   0.990862
H  -7.415194  -2.626720   1.441016
H  -6.475453  -4.274785   1.715249
H  -5.920846  -0.834145   0.653011

