%chk=/home/boittier/MDCM/nms_sampling/acrolein_geom.xyz.dir/acrolein_1168.chk
%nproc=8
%mem=16000MB
#p B2PLYPD3/Def2QZVP 

acrolein

0 1
C  -4.991809  -1.402197   0.909512
O  -3.928017  -0.850237   0.630470
C  -5.185804  -2.844497   1.188561
C  -6.434858  -3.289628   1.377969
H  -4.274101  -3.493257   1.147088
H  -7.276520  -2.660682   1.405446
H  -6.611904  -4.338776   1.449489
H  -5.929965  -0.785446   1.048528

