%chk=/home/boittier/MDCM/nms_sampling/acrolein_geom.xyz.dir/acrolein_2357.chk
%nproc=8
%mem=16000MB
#p B2PLYPD3/Def2QZVP 

acrolein

0 1
C  -5.047722  -1.329745   0.858506
O  -3.958932  -0.904824   0.682898
C  -5.184623  -2.803219   1.101546
C  -6.337899  -3.324878   1.436964
H  -4.352345  -3.435995   1.211781
H  -7.163036  -2.690922   1.399445
H  -6.615909  -4.442825   1.575692
H  -5.919220  -0.744223   0.972136

