%chk=/home/boittier/MDCM/nms_sampling/acrolein_geom.xyz.dir/acrolein_650.chk
%nproc=8
%mem=16000MB
#p B2PLYPD3/Def2QZVP 

acrolein

0 1
C  -5.007945  -1.388331   0.883139
O  -3.939207  -0.868986   0.667438
C  -5.189944  -2.811108   1.145599
C  -6.403092  -3.311778   1.401004
H  -4.295200  -3.420041   1.060719
H  -7.268307  -2.681193   1.474462
H  -6.574655  -4.380284   1.612146
H  -5.900828  -0.799300   0.879836

