%chk=/home/boittier/MDCM/nms_sampling/acrolein_geom.xyz.dir/acrolein_481.chk
%nproc=8
%mem=16000MB
#p B2PLYPD3/Def2QZVP 

acrolein

0 1
C  -5.008142  -1.387330   0.899398
O  -3.941299  -0.857852   0.649864
C  -5.175864  -2.838750   1.157166
C  -6.406719  -3.301404   1.391619
H  -4.296977  -3.448759   1.143687
H  -7.325645  -2.668853   1.462857
H  -6.569981  -4.345059   1.530943
H  -5.937047  -0.796944   0.939393
