%chk=/home/boittier/MDCM/nms_sampling/acrolein_geom.xyz.dir/acrolein_156.chk
%nproc=8
%mem=16000MB
#p B2PLYPD3/Def2QZVP 

acrolein

0 1
C  -4.995800  -1.396390   0.903821
O  -3.939822  -0.859256   0.649611
C  -5.184532  -2.828818   1.153051
C  -6.414550  -3.300670   1.387724
H  -4.311967  -3.451496   1.114165
H  -7.307780  -2.665538   1.381631
H  -6.579115  -4.352716   1.646143
H  -5.909306  -0.787348   0.987967
