%chk=/home/boittier/MDCM/nms_sampling/acrolein_geom.xyz.dir/acrolein_846.chk
%nproc=8
%mem=16000MB
#p B2PLYPD3/Def2QZVP 

acrolein

0 1
C  -5.010958  -1.369518   0.886229
O  -3.933870  -0.877152   0.664677
C  -5.195261  -2.822223   1.138294
C  -6.398148  -3.314728   1.409073
H  -4.320312  -3.430698   1.086700
H  -7.264037  -2.646060   1.378488
H  -6.572255  -4.366172   1.619881
H  -5.918968  -0.749802   0.941158

