%chk=/home/boittier/MDCM/nms_sampling/acrolein_geom.xyz.dir/acrolein_1416.chk
%nproc=8
%mem=16000MB
#p B2PLYPD3/Def2QZVP 

acrolein

0 1
C  -5.001739  -1.378185   0.929322
O  -3.928099  -0.873228   0.621096
C  -5.198208  -2.811906   1.203568
C  -6.404563  -3.313040   1.367093
H  -4.329836  -3.457815   1.067724
H  -7.210270  -2.670949   1.373874
H  -6.610330  -4.379846   1.481418
H  -6.020498  -0.786947   1.002277

