%chk=/home/boittier/MDCM/nms_sampling/acrolein_geom.xyz.dir/acrolein_2135.chk
%nproc=8
%mem=16000MB
#p B2PLYPD3/Def2QZVP 

acrolein

0 1
C  -5.014334  -1.399729   0.801274
O  -3.956476  -0.856417   0.726023
C  -5.191075  -2.833966   1.105173
C  -6.381436  -3.304389   1.432145
H  -4.393917  -3.492039   1.004672
H  -7.213359  -2.643759   1.658739
H  -6.412176  -4.232069   1.705899
H  -5.901890  -0.757042   0.810350
