%chk=/home/boittier/MDCM/nms_sampling/acrolein_geom.xyz.dir/acrolein_2020.chk
%nproc=8
%mem=16000MB
#p B2PLYPD3/Def2QZVP 

acrolein

0 1
C  -4.980568  -1.383619   0.844271
O  -3.914912  -0.862390   0.708713
C  -5.197817  -2.841858   1.046577
C  -6.440631  -3.297808   1.470712
H  -4.288793  -3.428370   1.238479
H  -7.271731  -2.647719   1.349762
H  -6.676690  -4.358677   1.687403
H  -5.982056  -0.808547   0.901074

