%chk=/home/boittier/MDCM/nms_sampling/acrolein_geom.xyz.dir/acrolein_1465.chk
%nproc=8
%mem=16000MB
#p B2PLYPD3/Def2QZVP 

acrolein

0 1
C  -5.002232  -1.402625   0.869919
O  -3.935633  -0.857867   0.676529
C  -5.199958  -2.820827   1.152118
C  -6.413948  -3.304033   1.404013
H  -4.226937  -3.471444   0.982405
H  -7.280802  -2.640410   1.513454
H  -6.550124  -4.367293   1.605227
H  -5.869599  -0.791289   0.831956
