%chk=/home/boittier/MDCM/nms_sampling/acrolein_geom.xyz.dir/acrolein_1018.chk
%nproc=8
%mem=16000MB
#p B2PLYPD3/Def2QZVP 

acrolein

0 1
C  -4.990650  -1.385044   0.936329
O  -3.937013  -0.860146   0.621089
C  -5.189199  -2.840502   1.165973
C  -6.424281  -3.305072   1.383711
H  -4.304866  -3.451489   1.235850
H  -7.397973  -2.635809   1.325569
H  -6.517512  -4.294271   1.479200
H  -5.830231  -0.808432   1.038504

