%chk=/home/boittier/MDCM/nms_sampling/acrolein_geom.xyz.dir/acrolein_2329.chk
%nproc=8
%mem=16000MB
#p B2PLYPD3/Def2QZVP 

acrolein

0 1
C  -5.026136  -1.388934   0.957536
O  -3.944897  -0.871918   0.617700
C  -5.166768  -2.809352   1.185188
C  -6.391107  -3.303620   1.366001
H  -4.291616  -3.438297   1.089298
H  -7.127064  -2.626578   1.412225
H  -6.686766  -4.531565   1.523934
H  -6.015204  -0.723263   0.852767
