%chk=/home/boittier/MDCM/nms_sampling/acrolein_geom.xyz.dir/acrolein_1796.chk
%nproc=8
%mem=16000MB
#p B2PLYPD3/Def2QZVP 

acrolein

0 1
C  -5.004156  -1.387613   0.899576
O  -3.949151  -0.866463   0.648456
C  -5.183294  -2.816401   1.176615
C  -6.396267  -3.319454   1.397726
H  -4.311983  -3.454110   1.011023
H  -7.351352  -2.669704   1.378684
H  -6.558388  -4.288139   1.496690
H  -5.869402  -0.766132   0.923267
