%chk=/home/boittier/MDCM/nms_sampling/acrolein_geom.xyz.dir/acrolein_2464.chk
%nproc=8
%mem=16000MB
#p B2PLYPD3/Def2QZVP 

acrolein

0 1
C  -4.998673  -1.397663   0.910927
O  -3.943753  -0.854563   0.626194
C  -5.183803  -2.818622   1.217389
C  -6.418426  -3.303989   1.353228
H  -4.146616  -3.498011   1.063372
H  -7.222686  -2.701997   1.496534
H  -6.621962  -4.380367   1.475555
H  -5.991559  -0.842635   1.020156
