%chk=/home/boittier/MDCM/nms_sampling/acrolein_geom.xyz.dir/acrolein_2050.chk
%nproc=8
%mem=16000MB
#p B2PLYPD3/Def2QZVP 

acrolein

0 1
C  -4.991328  -1.407966   0.935488
O  -3.956219  -0.841705   0.605959
C  -5.178576  -2.856672   1.181242
C  -6.419018  -3.285589   1.366209
H  -4.320440  -3.523630   1.308569
H  -7.284820  -2.646282   1.203972
H  -6.470126  -4.229539   1.535680
H  -5.844509  -0.835596   1.297652

