%chk=/home/boittier/MDCM/nms_sampling/acrolein_geom.xyz.dir/acrolein_316.chk
%nproc=8
%mem=16000MB
#p B2PLYPD3/Def2QZVP 

acrolein

0 1
C  -4.997233  -1.384694   0.914144
O  -3.933020  -0.860564   0.643838
C  -5.188007  -2.841482   1.162031
C  -6.418417  -3.300480   1.385276
H  -4.313054  -3.459300   1.110417
H  -7.305488  -2.645537   1.442301
H  -6.550704  -4.336637   1.560740
H  -5.940741  -0.776564   0.906924
