%chk=/home/boittier/MDCM/nms_sampling/acrolein_geom.xyz.dir/acrolein_2459.chk
%nproc=8
%mem=16000MB
#p B2PLYPD3/Def2QZVP 

acrolein

0 1
C  -5.031074  -1.340804   0.964587
O  -3.951153  -0.903048   0.588341
C  -5.196717  -2.790393   1.248487
C  -6.362479  -3.315307   1.324783
H  -4.312770  -3.474701   1.094551
H  -7.087014  -2.718614   1.447667
H  -6.630370  -4.498022   1.415934
H  -5.919175  -0.791319   1.027391
