%chk=/home/boittier/MDCM/nms_sampling/acrolein_geom.xyz.dir/acrolein_1169.chk
%nproc=8
%mem=16000MB
#p B2PLYPD3/Def2QZVP 

acrolein

0 1
C  -4.982517  -1.410604   0.863224
O  -3.931000  -0.852368   0.689279
C  -5.194537  -2.827762   1.120634
C  -6.427317  -3.299878   1.437036
H  -4.291381  -3.474189   1.014449
H  -7.384264  -2.613514   1.474792
H  -6.591244  -4.357844   1.548136
H  -5.883152  -0.783098   0.757535
