%chk=/home/boittier/MDCM/nms_sampling/acrolein_geom.xyz.dir/acrolein_1477.chk
%nproc=8
%mem=16000MB
#p B2PLYPD3/Def2QZVP 

acrolein

0 1
C  -5.007718  -1.370964   0.885981
O  -3.922948  -0.878318   0.674637
C  -5.208242  -2.808280   1.111628
C  -6.399033  -3.322602   1.429273
H  -4.353489  -3.409031   1.101527
H  -7.312319  -2.699185   1.358846
H  -6.539946  -4.331592   1.627522
H  -5.930412  -0.800287   0.863897
