%chk=/home/boittier/MDCM/nms_sampling/acrolein_geom.xyz.dir/acrolein_2554.chk
%nproc=8
%mem=16000MB
#p B2PLYPD3/Def2QZVP 

acrolein

0 1
C  -4.988617  -1.411378   0.960935
O  -3.951388  -0.845692   0.604688
C  -5.183584  -2.873043   1.164085
C  -6.414168  -3.261312   1.356597
H  -4.267519  -3.449703   1.361677
H  -7.281966  -2.630538   1.371857
H  -6.668723  -4.386805   1.553056
H  -5.801211  -0.771048   1.089988
