%chk=/home/boittier/MDCM/nms_sampling/acrolein_geom.xyz.dir/acrolein_798.chk
%nproc=8
%mem=16000MB
#p B2PLYPD3/Def2QZVP 

acrolein

0 1
C  -4.999309  -1.394751   0.906071
O  -3.941407  -0.859239   0.644224
C  -5.189200  -2.826153   1.154267
C  -6.411766  -3.305952   1.384496
H  -4.274741  -3.455529   1.180564
H  -7.280395  -2.650103   1.407681
H  -6.550692  -4.337507   1.598300
H  -5.911751  -0.805123   1.017084
