%chk=/home/boittier/MDCM/nms_sampling/acrolein_geom.xyz.dir/acrolein_1458.chk
%nproc=8
%mem=16000MB
#p B2PLYPD3/Def2QZVP 

acrolein

0 1
C  -4.994355  -1.387514   0.868769
O  -3.931002  -0.874551   0.671978
C  -5.193477  -2.794468   1.147350
C  -6.410978  -3.319822   1.412579
H  -4.318356  -3.401663   1.060305
H  -7.279672  -2.686728   1.463962
H  -6.639465  -4.410185   1.537328
H  -5.962374  -0.811335   0.904872

