%chk=/home/boittier/MDCM/nms_sampling/acrolein_geom.xyz.dir/acrolein_2155.chk
%nproc=8
%mem=16000MB
#p B2PLYPD3/Def2QZVP 

acrolein

0 1
C  -5.026655  -1.352639   0.943539
O  -3.951744  -0.901985   0.605594
C  -5.200752  -2.767196   1.234319
C  -6.354230  -3.345184   1.333790
H  -4.367165  -3.405538   1.048395
H  -7.289297  -2.661732   1.437627
H  -6.515422  -4.435850   1.509869
H  -5.882300  -0.786768   1.032903

