%chk=/home/boittier/MDCM/nms_sampling/acrolein_geom.xyz.dir/acrolein_2147.chk
%nproc=8
%mem=16000MB
#p B2PLYPD3/Def2QZVP 

acrolein

0 1
C  -5.027813  -1.339328   0.800501
O  -3.915172  -0.898727   0.728472
C  -5.187766  -2.791037   1.064679
C  -6.408874  -3.340633   1.472486
H  -4.283745  -3.456092   1.102079
H  -7.321622  -2.734782   1.378320
H  -6.599718  -4.415769   1.716943
H  -5.940084  -0.676830   0.957401
