%chk=/home/boittier/MDCM/nms_sampling/acrolein_geom.xyz.dir/acrolein_2175.chk
%nproc=8
%mem=16000MB
#p B2PLYPD3/Def2QZVP 

acrolein

0 1
C  -4.999554  -1.377072   0.984502
O  -3.905309  -0.879675   0.601562
C  -5.202993  -2.812789   1.161197
C  -6.429962  -3.311092   1.373327
H  -4.378212  -3.388874   1.208616
H  -7.136856  -2.635069   1.160977
H  -6.629303  -4.444457   1.617724
H  -6.043292  -0.733182   1.023232
