%chk=/home/boittier/MDCM/nms_sampling/acrolein_geom.xyz.dir/acrolein_251.chk
%nproc=8
%mem=16000MB
#p B2PLYPD3/Def2QZVP 

acrolein

0 1
C  -5.015548  -1.373189   0.879832
O  -3.941413  -0.876523   0.671418
C  -5.190783  -2.804551   1.133014
C  -6.393048  -3.323888   1.407616
H  -4.285519  -3.440525   1.109673
H  -7.235978  -2.687061   1.500906
H  -6.548578  -4.357144   1.595549
H  -5.948242  -0.785054   0.863260
