%chk=/home/boittier/MDCM/nms_sampling/acrolein_geom.xyz.dir/acrolein_1916.chk
%nproc=8
%mem=16000MB
#p B2PLYPD3/Def2QZVP 

acrolein

0 1
C  -5.025259  -1.357900   0.985865
O  -3.937156  -0.894683   0.594384
C  -5.187630  -2.792045   1.180101
C  -6.383907  -3.327096   1.336559
H  -4.315902  -3.374457   1.224138
H  -7.060490  -2.704347   1.250759
H  -6.649018  -4.463648   1.734162
H  -6.062762  -0.712640   1.102168

