%chk=/home/boittier/MDCM/nms_sampling/acrolein_geom.xyz.dir/acrolein_1652.chk
%nproc=8
%mem=16000MB
#p B2PLYPD3/Def2QZVP 

acrolein

0 1
C  -4.994587  -1.392991   0.870458
O  -3.928795  -0.853252   0.686261
C  -5.185532  -2.847759   1.116740
C  -6.417965  -3.296885   1.432975
H  -4.372133  -3.463565   1.038156
H  -7.391046  -2.610473   1.468465
H  -6.568029  -4.314831   1.579809
H  -5.915213  -0.814426   0.763393

