%chk=/home/boittier/MDCM/nms_sampling/acrolein_geom.xyz.dir/acrolein_1371.chk
%nproc=8
%mem=16000MB
#p B2PLYPD3/Def2QZVP 

acrolein

0 1
C  -5.002702  -1.385444   0.898304
O  -3.919650  -0.877157   0.657886
C  -5.210461  -2.791022   1.128336
C  -6.406162  -3.319954   1.392340
H  -4.302998  -3.390807   1.197737
H  -7.254602  -2.702453   1.432053
H  -6.600049  -4.432819   1.690082
H  -5.981395  -0.805896   0.974545
