%chk=/home/boittier/MDCM/nms_sampling/acrolein_geom.xyz.dir/acrolein_454.chk
%nproc=8
%mem=16000MB
#p B2PLYPD3/Def2QZVP 

acrolein

0 1
C  -4.999139  -1.385648   0.899447
O  -3.931451  -0.865285   0.643919
C  -5.196022  -2.826242   1.172108
C  -6.406596  -3.311143   1.388667
H  -4.330838  -3.456287   1.117865
H  -7.300441  -2.643755   1.417699
H  -6.561537  -4.326903   1.501086
H  -5.963836  -0.760756   0.993472

