%chk=/home/boittier/MDCM/nms_sampling/acrolein_geom.xyz.dir/acrolein_829.chk
%nproc=8
%mem=16000MB
#p B2PLYPD3/Def2QZVP 

acrolein

0 1
C  -5.002135  -1.396952   0.901072
O  -3.937546  -0.857295   0.652552
C  -5.190766  -2.830135   1.154561
C  -6.403461  -3.305565   1.402418
H  -4.319274  -3.430408   1.093382
H  -7.289250  -2.632398   1.415210
H  -6.559571  -4.332524   1.518811
H  -5.951771  -0.809065   0.898347

