%chk=/home/boittier/MDCM/nms_sampling/acrolein_geom.xyz.dir/acrolein_2067.chk
%nproc=8
%mem=16000MB
#p B2PLYPD3/Def2QZVP 

acrolein

0 1
C  -4.985360  -1.422653   0.821944
O  -3.962694  -0.830510   0.717432
C  -5.152058  -2.867539   1.086415
C  -6.420017  -3.267834   1.472365
H  -4.244620  -3.514273   1.090410
H  -7.334710  -2.625749   1.570873
H  -6.704420  -4.358919   1.446824
H  -5.906938  -0.843775   0.707385

