%chk=/home/boittier/MDCM/nms_sampling/acrolein_geom.xyz.dir/acrolein_1175.chk
%nproc=8
%mem=16000MB
#p B2PLYPD3/Def2QZVP 

acrolein

0 1
C  -5.003547  -1.399113   0.928485
O  -3.948542  -0.858768   0.628303
C  -5.194408  -2.828748   1.149231
C  -6.393033  -3.305288   1.387279
H  -4.314500  -3.474256   1.276038
H  -7.249227  -2.619675   1.320922
H  -6.533594  -4.305490   1.545054
H  -5.908405  -0.768798   1.068965
