%chk=/home/boittier/MDCM/nms_sampling/acrolein_geom.xyz.dir/acrolein_914.chk
%nproc=8
%mem=16000MB
#p B2PLYPD3/Def2QZVP 

acrolein

0 1
C  -5.005965  -1.393808   0.858332
O  -3.940463  -0.849941   0.686023
C  -5.168466  -2.846545   1.118984
C  -6.415705  -3.300214   1.431152
H  -4.289251  -3.499463   1.112878
H  -7.376450  -2.664997   1.515783
H  -6.555587  -4.302843   1.521579
H  -5.937617  -0.763274   0.829904

