%chk=/home/boittier/MDCM/nms_sampling/acrolein_geom.xyz.dir/acrolein_1308.chk
%nproc=8
%mem=16000MB
#p B2PLYPD3/Def2QZVP 

acrolein

0 1
C  -4.990478  -1.394976   0.917730
O  -3.935422  -0.856055   0.633591
C  -5.178519  -2.844447   1.155309
C  -6.431862  -3.290794   1.384976
H  -4.291941  -3.434197   1.236264
H  -7.295170  -2.621117   1.351098
H  -6.618945  -4.389822   1.556451
H  -5.895804  -0.808811   1.067880

