%chk=/home/boittier/MDCM/nms_sampling/acrolein_geom.xyz.dir/acrolein_1539.chk
%nproc=8
%mem=16000MB
#p B2PLYPD3/Def2QZVP 

acrolein

0 1
C  -4.990446  -1.397565   0.926338
O  -3.937581  -0.853807   0.626296
C  -5.201483  -2.844847   1.186874
C  -6.412936  -3.295102   1.368402
H  -4.329975  -3.447124   1.154374
H  -7.316015  -2.669220   1.477220
H  -6.516218  -4.259762   1.465839
H  -5.868133  -0.830155   0.952504
