%chk=/home/boittier/MDCM/nms_sampling/acrolein_geom.xyz.dir/acrolein_782.chk
%nproc=8
%mem=16000MB
#p B2PLYPD3/Def2QZVP 

acrolein

0 1
C  -5.003826  -1.379003   0.869557
O  -3.928981  -0.875024   0.676814
C  -5.195295  -2.810033   1.141715
C  -6.405987  -3.316293   1.412998
H  -4.301543  -3.428282   1.023650
H  -7.294422  -2.664915   1.466850
H  -6.609508  -4.403918   1.594282
H  -5.949457  -0.754812   0.862949

