%chk=/home/boittier/MDCM/nms_sampling/acrolein_geom.xyz.dir/acrolein_1427.chk
%nproc=8
%mem=16000MB
#p B2PLYPD3/Def2QZVP 

acrolein

0 1
C  -5.010587  -1.362094   0.930330
O  -3.933111  -0.887471   0.626840
C  -5.194391  -2.807527   1.176512
C  -6.393047  -3.319604   1.386952
H  -4.413895  -3.395573   1.139177
H  -7.271898  -2.708123   1.359766
H  -6.559089  -4.370918   1.447793
H  -5.916289  -0.752197   0.957855

