%chk=/home/boittier/MDCM/nms_sampling/acrolein_geom.xyz.dir/acrolein_1406.chk
%nproc=8
%mem=16000MB
#p B2PLYPD3/Def2QZVP 

acrolein

0 1
C  -5.005504  -1.373850   0.841821
O  -3.932891  -0.862396   0.692549
C  -5.194870  -2.851965   1.134143
C  -6.410399  -3.300296   1.432214
H  -4.313348  -3.496052   1.014072
H  -7.279786  -2.615859   1.501598
H  -6.532810  -4.284939   1.523524
H  -5.895302  -0.791826   0.849071

