%chk=/home/boittier/MDCM/nms_sampling/acrolein_geom.xyz.dir/acrolein_944.chk
%nproc=8
%mem=16000MB
#p B2PLYPD3/Def2QZVP 

acrolein

0 1
C  -5.008245  -1.376889   0.853779
O  -3.920076  -0.876314   0.690781
C  -5.202529  -2.807298   1.115767
C  -6.401609  -3.321211   1.437755
H  -4.402036  -3.445975   1.096760
H  -7.255004  -2.660394   1.530679
H  -6.518701  -4.363471   1.500402
H  -6.028839  -0.734009   0.792648
