%chk=/home/boittier/MDCM/nms_sampling/acrolein_geom.xyz.dir/acrolein_288.chk
%nproc=8
%mem=16000MB
#p B2PLYPD3/Def2QZVP 

acrolein

0 1
C  -5.012160  -1.377137   0.866046
O  -3.944687  -0.875543   0.676894
C  -5.186678  -2.811623   1.137666
C  -6.389785  -3.317690   1.410940
H  -4.348249  -3.435957   1.085130
H  -7.251381  -2.643268   1.513767
H  -6.563430  -4.367208   1.573555
H  -5.923215  -0.768420   0.879488

