%chk=/home/boittier/MDCM/nms_sampling/acrolein_geom.xyz.dir/acrolein_20.chk
%nproc=8
%mem=16000MB
#p B2PLYPD3/Def2QZVP 

acrolein

0 1
C  -5.001189  -1.384593   0.870212
O  -3.929422  -0.862503   0.676645
C  -5.195202  -2.830223   1.134173
C  -6.412946  -3.312048   1.410999
H  -4.272137  -3.467791   1.080818
H  -7.312079  -2.636134   1.498631
H  -6.560417  -4.325292   1.599554
H  -5.958543  -0.765481   0.870142
