%chk=/home/boittier/MDCM/nms_sampling/acrolein_geom.xyz.dir/acrolein_1281.chk
%nproc=8
%mem=16000MB
#p B2PLYPD3/Def2QZVP 

acrolein

0 1
C  -5.000516  -1.384211   0.860939
O  -3.923975  -0.864201   0.680422
C  -5.186229  -2.836310   1.122336
C  -6.421535  -3.294009   1.409579
H  -4.321187  -3.483000   1.130197
H  -7.309443  -2.667581   1.453537
H  -6.636128  -4.403802   1.691507
H  -5.934267  -0.751739   0.976759
