%chk=/home/boittier/MDCM/nms_sampling/acrolein_geom.xyz.dir/acrolein_2676.chk
%nproc=8
%mem=16000MB
#p B2PLYPD3/Def2QZVP 

acrolein

0 1
C  -5.007849  -1.407620   0.867440
O  -3.960007  -0.837404   0.686912
C  -5.175010  -2.874520   1.077875
C  -6.387353  -3.279147   1.442556
H  -4.383535  -3.468964   1.232160
H  -7.375002  -2.624814   1.357041
H  -6.522395  -4.202225   1.675054
H  -5.789763  -0.879768   0.943157
