%chk=/home/boittier/MDCM/nms_sampling/acrolein_geom.xyz.dir/acrolein_397.chk
%nproc=8
%mem=16000MB
#p B2PLYPD3/Def2QZVP 

acrolein

0 1
C  -5.007238  -1.371008   0.916596
O  -3.931691  -0.880258   0.638848
C  -5.199229  -2.807955   1.153816
C  -6.397105  -3.321133   1.388600
H  -4.365271  -3.428960   1.191104
H  -7.231459  -2.653281   1.382181
H  -6.566518  -4.359061   1.555168
H  -5.954851  -0.772872   0.993203
