%chk=/home/boittier/MDCM/nms_sampling/acrolein_geom.xyz.dir/acrolein_1452.chk
%nproc=8
%mem=16000MB
#p B2PLYPD3/Def2QZVP 

acrolein

0 1
C  -5.006423  -1.362912   0.869808
O  -3.931628  -0.887893   0.684718
C  -5.198253  -2.791857   1.103947
C  -6.398403  -3.336566   1.416774
H  -4.354341  -3.433310   1.139028
H  -7.310559  -2.650293   1.467953
H  -6.545419  -4.362287   1.722185
H  -5.922463  -0.758587   0.885209

