%chk=/home/boittier/MDCM/nms_sampling/acrolein_geom.xyz.dir/acrolein_436.chk
%nproc=8
%mem=16000MB
#p B2PLYPD3/Def2QZVP 

acrolein

0 1
C  -5.001041  -1.389761   0.912886
O  -3.937435  -0.862821   0.643080
C  -5.187988  -2.821195   1.153036
C  -6.409897  -3.306184   1.390590
H  -4.267201  -3.459397   1.142613
H  -7.307107  -2.667153   1.347983
H  -6.589739  -4.384278   1.604028
H  -5.936170  -0.800011   0.996120
