%chk=/home/boittier/MDCM/nms_sampling/acrolein_geom.xyz.dir/acrolein_219.chk
%nproc=8
%mem=16000MB
#p B2PLYPD3/Def2QZVP 

acrolein

0 1
C  -5.003265  -1.379898   0.880220
O  -3.931099  -0.873940   0.666174
C  -5.193121  -2.816376   1.141090
C  -6.403786  -3.307798   1.407909
H  -4.336122  -3.438218   1.095843
H  -7.252859  -2.664215   1.413267
H  -6.629190  -4.408501   1.596695
H  -5.955296  -0.763632   0.945419

