%chk=/home/boittier/MDCM/nms_sampling/acrolein_geom.xyz.dir/acrolein_524.chk
%nproc=8
%mem=16000MB
#p B2PLYPD3/Def2QZVP 

acrolein

0 1
C  -5.006618  -1.385653   0.871217
O  -3.942180  -0.865634   0.672027
C  -5.193913  -2.828716   1.136660
C  -6.399566  -3.306021   1.415613
H  -4.292526  -3.444444   1.105940
H  -7.255600  -2.650473   1.452756
H  -6.538160  -4.347257   1.549945
H  -5.913320  -0.772202   0.915573
