%chk=/home/boittier/MDCM/nms_sampling/acrolein_geom.xyz.dir/acrolein_213.chk
%nproc=8
%mem=16000MB
#p B2PLYPD3/Def2QZVP 

acrolein

0 1
C  -5.016048  -1.378494   0.894307
O  -3.940018  -0.876380   0.654508
C  -5.194463  -2.806463   1.153325
C  -6.384712  -3.315417   1.400285
H  -4.350786  -3.436126   1.128008
H  -7.223403  -2.669606   1.458861
H  -6.572134  -4.382135   1.507567
H  -5.936987  -0.787996   0.914435

