%chk=/home/boittier/MDCM/nms_sampling/acrolein_geom.xyz.dir/acrolein_574.chk
%nproc=8
%mem=16000MB
#p B2PLYPD3/Def2QZVP 

acrolein

0 1
C  -5.007076  -1.380492   0.865135
O  -3.931727  -0.877436   0.677743
C  -5.201735  -2.808231   1.132873
C  -6.397135  -3.312253   1.409708
H  -4.356669  -3.412929   1.098087
H  -7.216351  -2.673314   1.492653
H  -6.597956  -4.384167   1.617853
H  -5.919494  -0.784873   0.911583

