%chk=/home/boittier/MDCM/nms_sampling/acrolein_geom.xyz.dir/acrolein_2687.chk
%nproc=8
%mem=16000MB
#p B2PLYPD3/Def2QZVP 

acrolein

0 1
C  -4.972382  -1.405491   0.860461
O  -3.920910  -0.850852   0.694748
C  -5.233839  -2.837578   1.066412
C  -6.429349  -3.296259   1.434006
H  -4.273242  -3.492914   1.257151
H  -7.350880  -2.695326   1.424946
H  -6.505996  -4.205368   1.776879
H  -5.828959  -0.861208   0.940064
