%chk=/home/boittier/MDCM/nms_sampling/acrolein_geom.xyz.dir/acrolein_1250.chk
%nproc=8
%mem=16000MB
#p B2PLYPD3/Def2QZVP 

acrolein

0 1
C  -5.006496  -1.401129   0.938568
O  -3.942120  -0.857773   0.625119
C  -5.180682  -2.823197   1.184604
C  -6.405483  -3.306142   1.365126
H  -4.247283  -3.424888   1.101217
H  -7.310721  -2.633856   1.435776
H  -6.599241  -4.405971   1.546731
H  -5.936197  -0.769598   0.914769

