%chk=/home/boittier/MDCM/nms_sampling/acrolein_geom.xyz.dir/acrolein_2668.chk
%nproc=8
%mem=16000MB
#p B2PLYPD3/Def2QZVP 

acrolein

0 1
C  -5.015099  -1.392516   0.960951
O  -3.961956  -0.847014   0.592857
C  -5.176241  -2.859935   1.249130
C  -6.388853  -3.304215   1.335953
H  -4.172734  -3.461094   1.024705
H  -7.408118  -2.684218   1.392354
H  -6.513018  -4.212374   1.407392
H  -5.843490  -0.754558   1.002476
