%chk=/home/boittier/MDCM/nms_sampling/acrolein_geom.xyz.dir/acrolein_2684.chk
%nproc=8
%mem=16000MB
#p B2PLYPD3/Def2QZVP 

acrolein

0 1
C  -4.993793  -1.373209   0.984611
O  -3.912756  -0.886259   0.588080
C  -5.211205  -2.807981   1.173609
C  -6.412815  -3.301557   1.331708
H  -4.366297  -3.384787   1.400967
H  -7.179849  -2.703000   1.355396
H  -6.672764  -4.515416   1.633112
H  -6.035537  -0.720591   1.147458

