%chk=/home/boittier/MDCM/nms_sampling/acrolein_geom.xyz.dir/acrolein_410.chk
%nproc=8
%mem=16000MB
#p B2PLYPD3/Def2QZVP 

acrolein

0 1
C  -5.005617  -1.371687   0.870366
O  -3.930795  -0.879082   0.675717
C  -5.198220  -2.809445   1.133604
C  -6.407378  -3.322427   1.410283
H  -4.304855  -3.418024   1.100781
H  -7.257597  -2.666942   1.509393
H  -6.554507  -4.363432   1.588508
H  -5.932091  -0.754925   0.875959

