%chk=/home/boittier/MDCM/nms_sampling/acrolein_geom.xyz.dir/acrolein_872.chk
%nproc=8
%mem=16000MB
#p B2PLYPD3/Def2QZVP 

acrolein

0 1
C  -5.017271  -1.377119   0.923101
O  -3.937517  -0.873217   0.634759
C  -5.186965  -2.808146   1.169449
C  -6.396511  -3.324712   1.387575
H  -4.287510  -3.416862   1.119043
H  -7.249305  -2.672143   1.381369
H  -6.534861  -4.369740   1.504307
H  -5.990696  -0.761209   0.938622

