%chk=/home/boittier/MDCM/nms_sampling/acrolein_geom.xyz.dir/acrolein_740.chk
%nproc=8
%mem=16000MB
#p B2PLYPD3/Def2QZVP 

acrolein

0 1
C  -4.998704  -1.390838   0.868682
O  -3.931470  -0.859474   0.679618
C  -5.188528  -2.833285   1.135889
C  -6.416854  -3.303291   1.420487
H  -4.329760  -3.469836   1.018011
H  -7.306852  -2.667843   1.451397
H  -6.564074  -4.313275   1.584694
H  -5.931753  -0.779914   0.842080

