%chk=/home/boittier/MDCM/nms_sampling/acrolein_geom.xyz.dir/acrolein_2580.chk
%nproc=8
%mem=16000MB
#p B2PLYPD3/Def2QZVP 

acrolein

0 1
C  -5.009711  -1.388592   0.932965
O  -3.926466  -0.883942   0.615816
C  -5.211933  -2.783938   1.186359
C  -6.383980  -3.320799   1.349759
H  -4.420771  -3.339013   1.281304
H  -7.067984  -2.704406   1.511117
H  -6.635239  -4.404314   1.498801
H  -6.037507  -0.787481   1.056909

