%chk=/home/boittier/MDCM/nms_sampling/acrolein_geom.xyz.dir/acrolein_178.chk
%nproc=8
%mem=16000MB
#p B2PLYPD3/Def2QZVP 

acrolein

0 1
C  -5.007284  -1.379127   0.888066
O  -3.935861  -0.872205   0.670399
C  -5.195707  -2.817404   1.121193
C  -6.402925  -3.310581   1.409276
H  -4.290307  -3.426499   1.118530
H  -7.208714  -2.667556   1.424123
H  -6.564489  -4.389948   1.678177
H  -5.964289  -0.783238   0.891191

