%chk=/home/boittier/MDCM/nms_sampling/acrolein_geom.xyz.dir/acrolein_2436.chk
%nproc=8
%mem=16000MB
#p B2PLYPD3/Def2QZVP 

acrolein

0 1
C  -4.986270  -1.415715   0.857491
O  -3.918418  -0.836339   0.690494
C  -5.195394  -2.850876   1.105262
C  -6.449558  -3.292093   1.414311
H  -4.160905  -3.521605   1.150602
H  -7.342133  -2.594816   1.549105
H  -6.616835  -4.313094   1.703880
H  -5.918629  -0.827038   0.873732
