%chk=/home/boittier/MDCM/nms_sampling/acrolein_geom.xyz.dir/acrolein_1784.chk
%nproc=8
%mem=16000MB
#p B2PLYPD3/Def2QZVP 

acrolein

0 1
C  -5.007432  -1.395289   0.945231
O  -3.939149  -0.868772   0.619414
C  -5.196689  -2.808638   1.181309
C  -6.401055  -3.305645   1.382821
H  -4.335789  -3.404717   1.121344
H  -7.150711  -2.702216   1.330283
H  -6.571647  -4.370782   1.453128
H  -5.922325  -0.815826   0.936714
