%chk=/home/boittier/MDCM/nms_sampling/acrolein_geom.xyz.dir/acrolein_1904.chk
%nproc=8
%mem=16000MB
#p B2PLYPD3/Def2QZVP 

acrolein

0 1
C  -5.046472  -1.326909   0.932563
O  -3.953433  -0.904081   0.603983
C  -5.181578  -2.801081   1.197372
C  -6.349786  -3.334175   1.362551
H  -4.357123  -3.449914   1.272861
H  -7.203604  -2.615417   1.246749
H  -6.562315  -4.446543   1.469847
H  -5.924343  -0.753567   1.274865
