%chk=/home/boittier/MDCM/nms_sampling/acrolein_geom.xyz.dir/acrolein_24.chk
%nproc=8
%mem=16000MB
#p B2PLYPD3/Def2QZVP 

acrolein

0 1
C  -5.005450  -1.390368   0.872013
O  -3.943109  -0.863192   0.675590
C  -5.191492  -2.820750   1.126997
C  -6.398767  -3.310059   1.407543
H  -4.293477  -3.442804   1.108624
H  -7.309356  -2.659428   1.450345
H  -6.540292  -4.341699   1.676157
H  -5.900716  -0.809743   0.934299

