%chk=/home/boittier/MDCM/nms_sampling/acrolein_geom.xyz.dir/acrolein_724.chk
%nproc=8
%mem=16000MB
#p B2PLYPD3/Def2QZVP 

acrolein

0 1
C  -5.011442  -1.386084   0.870567
O  -3.940264  -0.862740   0.675024
C  -5.192955  -2.827080   1.134823
C  -6.397510  -3.311859   1.411543
H  -4.264086  -3.448057   1.102125
H  -7.285181  -2.667355   1.509471
H  -6.551984  -4.307486   1.568966
H  -5.912260  -0.795870   0.873009

