%chk=/home/boittier/MDCM/nms_sampling/acrolein_geom.xyz.dir/acrolein_236.chk
%nproc=8
%mem=16000MB
#p B2PLYPD3/Def2QZVP 

acrolein

0 1
C  -5.006769  -1.382613   0.862883
O  -3.937634  -0.871493   0.679795
C  -5.191106  -2.811143   1.132114
C  -6.398396  -3.318348   1.409692
H  -4.345677  -3.443012   1.094629
H  -7.260134  -2.659014   1.513032
H  -6.536951  -4.352864   1.618578
H  -5.973310  -0.758283   0.897086
