%chk=/home/boittier/MDCM/nms_sampling/acrolein_geom.xyz.dir/acrolein_879.chk
%nproc=8
%mem=16000MB
#p B2PLYPD3/Def2QZVP 

acrolein

0 1
C  -4.997358  -1.405469   0.919563
O  -3.943147  -0.855871   0.634978
C  -5.197015  -2.830430   1.177462
C  -6.405299  -3.299130   1.377883
H  -4.285014  -3.442276   1.095464
H  -7.248136  -2.645203   1.402474
H  -6.573076  -4.322342   1.543812
H  -5.887744  -0.795715   0.960171
