%chk=/home/boittier/MDCM/nms_sampling/acrolein_geom.xyz.dir/acrolein_891.chk
%nproc=8
%mem=16000MB
#p B2PLYPD3/Def2QZVP 

acrolein

0 1
C  -5.012422  -1.385183   0.904435
O  -3.937952  -0.869599   0.639553
C  -5.192656  -2.808442   1.176721
C  -6.390604  -3.321429   1.382471
H  -4.301149  -3.433851   1.131853
H  -7.261742  -2.664753   1.436545
H  -6.567463  -4.353463   1.492897
H  -5.988639  -0.768463   0.995069

