%chk=/home/boittier/MDCM/nms_sampling/acrolein_geom.xyz.dir/acrolein_711.chk
%nproc=8
%mem=16000MB
#p B2PLYPD3/Def2QZVP 

acrolein

0 1
C  -5.010229  -1.382098   0.861693
O  -3.939433  -0.874696   0.679166
C  -5.194840  -2.798889   1.134780
C  -6.392037  -3.323855   1.417232
H  -4.308312  -3.435962   1.084810
H  -7.251411  -2.661581   1.490719
H  -6.554499  -4.378951   1.560903
H  -5.964021  -0.781891   0.891550
