%chk=/home/boittier/MDCM/nms_sampling/acrolein_geom.xyz.dir/acrolein_291.chk
%nproc=8
%mem=16000MB
#p B2PLYPD3/Def2QZVP 

acrolein

0 1
C  -5.008013  -1.383811   0.898450
O  -3.936839  -0.871976   0.653778
C  -5.190670  -2.805745   1.147839
C  -6.401241  -3.318782   1.392322
H  -4.274642  -3.413326   1.157068
H  -7.238806  -2.677493   1.479454
H  -6.603535  -4.389137   1.568598
H  -5.969374  -0.789249   0.922556

