%chk=/home/boittier/MDCM/nms_sampling/acrolein_geom.xyz.dir/acrolein_2680.chk
%nproc=8
%mem=16000MB
#p B2PLYPD3/Def2QZVP 

acrolein

0 1
C  -5.028411  -1.354608   0.843051
O  -3.951861  -0.901198   0.707401
C  -5.192121  -2.798596   1.107251
C  -6.374776  -3.307211   1.435061
H  -4.307949  -3.394414   1.033751
H  -7.045231  -2.665809   1.674827
H  -6.607815  -4.575383   1.566090
H  -5.904561  -0.698339   0.646707

