%chk=/home/boittier/MDCM/nms_sampling/acrolein_geom.xyz.dir/acrolein_446.chk
%nproc=8
%mem=16000MB
#p B2PLYPD3/Def2QZVP 

acrolein

0 1
C  -5.004409  -1.393625   0.907633
O  -3.940263  -0.856420   0.642748
C  -5.187743  -2.834848   1.161199
C  -6.401820  -3.301647   1.392176
H  -4.314465  -3.450705   1.155989
H  -7.288794  -2.662865   1.418587
H  -6.541437  -4.327347   1.500360
H  -5.963086  -0.805852   0.962627
