%chk=/home/boittier/MDCM/nms_sampling/acrolein_geom.xyz.dir/acrolein_1814.chk
%nproc=8
%mem=16000MB
#p B2PLYPD3/Def2QZVP 

acrolein

0 1
C  -5.007925  -1.418700   0.962979
O  -3.940592  -0.865186   0.615990
C  -5.205872  -2.786550   1.179384
C  -6.399681  -3.311491   1.358933
H  -4.293246  -3.409228   1.125067
H  -7.141756  -2.717480   1.428291
H  -6.542465  -4.380807   1.574939
H  -5.891229  -0.770187   0.861548

