%chk=/home/boittier/MDCM/nms_sampling/acrolein_geom.xyz.dir/acrolein_561.chk
%nproc=8
%mem=16000MB
#p B2PLYPD3/Def2QZVP 

acrolein

0 1
C  -5.001527  -1.383547   0.881888
O  -3.932897  -0.863640   0.676296
C  -5.193990  -2.837220   1.116976
C  -6.408507  -3.304070   1.412817
H  -4.338592  -3.439106   1.102954
H  -7.326397  -2.645001   1.443318
H  -6.555793  -4.313660   1.688594
H  -5.884694  -0.797120   0.866486
