%chk=/home/boittier/MDCM/nms_sampling/acrolein_geom.xyz.dir/acrolein_2180.chk
%nproc=8
%mem=16000MB
#p B2PLYPD3/Def2QZVP 

acrolein

0 1
C  -5.036255  -1.315158   0.885012
O  -3.922163  -0.912982   0.652119
C  -5.203423  -2.802570   1.128127
C  -6.372902  -3.329580   1.411193
H  -4.421128  -3.436119   1.279047
H  -7.198456  -2.620576   1.257814
H  -6.608877  -4.463737   1.593387
H  -5.908165  -0.775311   1.185607
