%chk=/home/boittier/MDCM/nms_sampling/acrolein_geom.xyz.dir/acrolein_59.chk
%nproc=8
%mem=16000MB
#p B2PLYPD3/Def2QZVP 

acrolein

0 1
C  -5.011315  -1.385649   0.875032
O  -3.937603  -0.873527   0.675806
C  -5.190443  -2.799759   1.123540
C  -6.393019  -3.320370   1.419905
H  -4.316972  -3.405872   1.075895
H  -7.267455  -2.671818   1.367121
H  -6.597230  -4.400096   1.660374
H  -5.951973  -0.793532   0.928769

