%chk=/home/boittier/MDCM/nms_sampling/acrolein_geom.xyz.dir/acrolein_572.chk
%nproc=8
%mem=16000MB
#p B2PLYPD3/Def2QZVP 

acrolein

0 1
C  -5.008668  -1.381959   0.912725
O  -3.936216  -0.871979   0.636743
C  -5.195314  -2.813593   1.169933
C  -6.397256  -3.309483   1.386876
H  -4.312395  -3.426123   1.155487
H  -7.200047  -2.666622   1.408278
H  -6.572616  -4.410444   1.484058
H  -5.990414  -0.788368   0.983145

