%chk=/home/boittier/MDCM/nms_sampling/acrolein_geom.xyz.dir/acrolein_2063.chk
%nproc=8
%mem=16000MB
#p B2PLYPD3/Def2QZVP 

acrolein

0 1
C  -4.987466  -1.400301   0.880301
O  -3.934736  -0.865105   0.677082
C  -5.210878  -2.812876   1.114629
C  -6.416611  -3.300076   1.403041
H  -4.255468  -3.394263   1.093712
H  -7.336008  -2.646555   1.393871
H  -6.564813  -4.434007   1.819149
H  -5.804327  -0.858369   0.946629
