%chk=/home/boittier/MDCM/nms_sampling/acrolein_geom.xyz.dir/acrolein_1294.chk
%nproc=8
%mem=16000MB
#p B2PLYPD3/Def2QZVP 

acrolein

0 1
C  -4.999114  -1.416010   0.885962
O  -3.940234  -0.845683   0.672225
C  -5.186739  -2.834737   1.137313
C  -6.405174  -3.300554   1.408195
H  -4.318867  -3.467966   1.029408
H  -7.318852  -2.609277   1.476124
H  -6.552312  -4.312653   1.624208
H  -5.956283  -0.776851   0.806891

