%chk=/home/boittier/MDCM/nms_sampling/acrolein_geom.xyz.dir/acrolein_2565.chk
%nproc=8
%mem=16000MB
#p B2PLYPD3/Def2QZVP 

acrolein

0 1
C  -4.988324  -1.392846   0.949651
O  -3.917548  -0.856789   0.616689
C  -5.198670  -2.859428   1.198871
C  -6.439172  -3.274930   1.352907
H  -4.293083  -3.503943   1.124988
H  -7.276287  -2.636977   1.560348
H  -6.686286  -4.373227   1.451596
H  -5.838122  -0.763761   0.832215
