%chk=/home/boittier/MDCM/nms_sampling/acrolein_geom.xyz.dir/acrolein_413.chk
%nproc=8
%mem=16000MB
#p B2PLYPD3/Def2QZVP 

acrolein

0 1
C  -5.005498  -1.368663   0.903963
O  -3.932140  -0.875907   0.645672
C  -5.194074  -2.825018   1.160512
C  -6.407010  -3.311796   1.395429
H  -4.332539  -3.436766   1.147523
H  -7.258642  -2.644553   1.438558
H  -6.569551  -4.361200   1.480319
H  -5.917227  -0.779515   0.938317
