%chk=/home/boittier/MDCM/nms_sampling/acrolein_geom.xyz.dir/acrolein_1329.chk
%nproc=8
%mem=16000MB
#p B2PLYPD3/Def2QZVP 

acrolein

0 1
C  -5.008945  -1.367786   0.899460
O  -3.922834  -0.883337   0.663949
C  -5.197489  -2.805259   1.119689
C  -6.417055  -3.319242   1.417777
H  -4.275214  -3.402022   1.117222
H  -7.241456  -2.646354   1.329872
H  -6.629235  -4.435317   1.649480
H  -5.879844  -0.793009   0.904095

