%chk=/home/boittier/MDCM/nms_sampling/acrolein_geom.xyz.dir/acrolein_1330.chk
%nproc=8
%mem=16000MB
#p B2PLYPD3/Def2QZVP 

acrolein

0 1
C  -5.009070  -1.401549   0.866859
O  -3.935477  -0.865235   0.683542
C  -5.197315  -2.807170   1.114160
C  -6.393707  -3.308841   1.430566
H  -4.323971  -3.447011   1.063794
H  -7.170291  -2.640606   1.355476
H  -6.604186  -4.401141   1.663339
H  -6.000640  -0.760436   0.911427
