%chk=/home/boittier/MDCM/nms_sampling/acrolein_geom.xyz.dir/acrolein_1741.chk
%nproc=8
%mem=16000MB
#p B2PLYPD3/Def2QZVP 

acrolein

0 1
C  -5.018494  -1.362426   0.915382
O  -3.922795  -0.884322   0.633596
C  -5.198016  -2.810765   1.178218
C  -6.394374  -3.316766   1.386817
H  -4.342868  -3.413460   1.152332
H  -7.226025  -2.714251   1.448983
H  -6.584966  -4.421313   1.407131
H  -6.020348  -0.721746   0.941845

