%chk=/home/boittier/MDCM/nms_sampling/acrolein_geom.xyz.dir/acrolein_383.chk
%nproc=8
%mem=16000MB
#p B2PLYPD3/Def2QZVP 

acrolein

0 1
C  -4.992966  -1.393823   0.902762
O  -3.934309  -0.859640   0.643663
C  -5.188296  -2.824981   1.158049
C  -6.416983  -3.309149   1.390770
H  -4.312190  -3.457446   1.166479
H  -7.343756  -2.652762   1.366174
H  -6.585066  -4.318845   1.560695
H  -5.919514  -0.803088   1.041222
