%chk=/home/boittier/MDCM/nms_sampling/acrolein_geom.xyz.dir/acrolein_667.chk
%nproc=8
%mem=16000MB
#p B2PLYPD3/Def2QZVP 

acrolein

0 1
C  -5.010512  -1.381723   0.899056
O  -3.941093  -0.874998   0.647792
C  -5.196917  -2.809136   1.162157
C  -6.391343  -3.318746   1.395181
H  -4.325088  -3.410355   1.113327
H  -7.213388  -2.654505   1.387601
H  -6.551609  -4.357662   1.532216
H  -5.933872  -0.768737   0.984087
