%chk=/home/boittier/MDCM/nms_sampling/acrolein_geom.xyz.dir/acrolein_908.chk
%nproc=8
%mem=16000MB
#p B2PLYPD3/Def2QZVP 

acrolein

0 1
C  -5.010147  -1.378035   0.893726
O  -3.924024  -0.884216   0.648311
C  -5.220044  -2.787092   1.166361
C  -6.394868  -3.329083   1.394314
H  -4.288029  -3.392478   1.122001
H  -7.185097  -2.684035   1.417536
H  -6.592062  -4.375908   1.499226
H  -5.925744  -0.792859   0.990754
