%chk=/home/boittier/MDCM/nms_sampling/acrolein_geom.xyz.dir/acrolein_1341.chk
%nproc=8
%mem=16000MB
#p B2PLYPD3/Def2QZVP 

acrolein

0 1
C  -5.012088  -1.390698   0.873330
O  -3.946457  -0.855309   0.689460
C  -5.185502  -2.842262   1.101421
C  -6.393681  -3.299313   1.419386
H  -4.305546  -3.491340   1.065179
H  -7.248881  -2.648549   1.458217
H  -6.554940  -4.286180   1.770296
H  -5.925054  -0.809480   0.813007
