%chk=/home/boittier/MDCM/nms_sampling/acrolein_geom.xyz.dir/acrolein_920.chk
%nproc=8
%mem=16000MB
#p B2PLYPD3/Def2QZVP 

acrolein

0 1
C  -5.014167  -1.382979   0.839282
O  -3.939025  -0.873605   0.695543
C  -5.193136  -2.807182   1.121529
C  -6.406332  -3.315666   1.436478
H  -4.226497  -3.416902   1.057362
H  -7.176190  -2.703687   1.491081
H  -6.572331  -4.385387   1.548592
H  -5.912194  -0.769119   0.869674

