%chk=/home/boittier/MDCM/nms_sampling/acrolein_geom.xyz.dir/acrolein_907.chk
%nproc=8
%mem=16000MB
#p B2PLYPD3/Def2QZVP 

acrolein

0 1
C  -4.996788  -1.380977   0.866071
O  -3.935874  -0.865641   0.684116
C  -5.188609  -2.841403   1.136139
C  -6.420691  -3.296374   1.409470
H  -4.297733  -3.485850   0.989014
H  -7.264813  -2.640893   1.503096
H  -6.618338  -4.337369   1.671388
H  -5.850509  -0.770404   0.821408
