%chk=/home/boittier/MDCM/nms_sampling/acrolein_geom.xyz.dir/acrolein_1323.chk
%nproc=8
%mem=16000MB
#p B2PLYPD3/Def2QZVP 

acrolein

0 1
C  -5.011639  -1.359254   0.855430
O  -3.929910  -0.887447   0.681059
C  -5.202023  -2.815009   1.127880
C  -6.393652  -3.311157   1.415248
H  -4.362130  -3.417468   1.121201
H  -7.211782  -2.674502   1.461418
H  -6.622830  -4.404052   1.621445
H  -5.900368  -0.779129   0.969878

