%chk=/home/boittier/MDCM/nms_sampling/acrolein_geom.xyz.dir/acrolein_1426.chk
%nproc=8
%mem=16000MB
#p B2PLYPD3/Def2QZVP 

acrolein

0 1
C  -4.994490  -1.409794   0.857834
O  -3.944568  -0.847541   0.694273
C  -5.190356  -2.833064   1.091126
C  -6.409567  -3.302481   1.427535
H  -4.205330  -3.441302   1.157875
H  -7.304350  -2.657680   1.492932
H  -6.590206  -4.315339   1.711194
H  -5.945502  -0.821117   0.865511
