%chk=/home/boittier/MDCM/nms_sampling/acrolein_geom.xyz.dir/acrolein_129.chk
%nproc=8
%mem=16000MB
#p B2PLYPD3/Def2QZVP 

acrolein

0 1
C  -5.008484  -1.371698   0.914807
O  -3.926355  -0.875836   0.638191
C  -5.200478  -2.810223   1.154603
C  -6.404841  -3.321495   1.391519
H  -4.300611  -3.445459   1.193794
H  -7.266415  -2.663598   1.354618
H  -6.548965  -4.368905   1.541981
H  -5.976534  -0.777719   1.019056
