%chk=/home/boittier/MDCM/nms_sampling/acrolein_geom.xyz.dir/acrolein_1875.chk
%nproc=8
%mem=16000MB
#p B2PLYPD3/Def2QZVP 

acrolein

0 1
C  -4.990483  -1.383140   0.955601
O  -3.933360  -0.852738   0.601256
C  -5.190106  -2.864313   1.224374
C  -6.428521  -3.291375   1.328869
H  -4.239656  -3.518461   1.090402
H  -7.477926  -2.661727   1.406456
H  -6.534625  -4.281925   1.578998
H  -5.814400  -0.757874   1.053274

