%chk=/home/boittier/MDCM/nms_sampling/acrolein_geom.xyz.dir/acrolein_535.chk
%nproc=8
%mem=16000MB
#p B2PLYPD3/Def2QZVP 

acrolein

0 1
C  -4.998234  -1.385970   0.891922
O  -3.936408  -0.863212   0.657110
C  -5.192577  -2.834548   1.158035
C  -6.406727  -3.305507   1.391647
H  -4.346550  -3.433322   1.073064
H  -7.321222  -2.634892   1.451620
H  -6.557200  -4.315263   1.595765
H  -5.900064  -0.802732   0.927451
