%chk=/home/boittier/MDCM/nms_sampling/acrolein_geom.xyz.dir/acrolein_1643.chk
%nproc=8
%mem=16000MB
#p B2PLYPD3/Def2QZVP 

acrolein

0 1
C  -4.998419  -1.397545   0.863757
O  -3.927474  -0.858138   0.686753
C  -5.207696  -2.825267   1.114900
C  -6.412290  -3.310681   1.433458
H  -4.298137  -3.470975   1.088329
H  -7.350043  -2.680934   1.492353
H  -6.512804  -4.259559   1.550083
H  -5.878201  -0.783676   0.799564

