%chk=/home/boittier/MDCM/nms_sampling/acrolein_geom.xyz.dir/acrolein_2555.chk
%nproc=8
%mem=16000MB
#p B2PLYPD3/Def2QZVP 

acrolein

0 1
C  -5.002109  -1.349672   0.947725
O  -3.919081  -0.907507   0.595841
C  -5.226981  -2.793536   1.222565
C  -6.390298  -3.318433   1.360283
H  -4.440471  -3.354873   1.232827
H  -7.171088  -2.620453   1.436937
H  -6.642974  -4.484180   1.227850
H  -5.860334  -0.765294   1.042563

