%chk=/home/boittier/MDCM/nms_sampling/acrolein_geom.xyz.dir/acrolein_1079.chk
%nproc=8
%mem=16000MB
#p B2PLYPD3/Def2QZVP 

acrolein

0 1
C  -5.014986  -1.375347   0.848722
O  -3.931814  -0.879990   0.694630
C  -5.204076  -2.790458   1.110162
C  -6.392496  -3.323180   1.443407
H  -4.243769  -3.441512   1.096627
H  -7.190296  -2.708871   1.512693
H  -6.593133  -4.430412   1.508964
H  -6.004121  -0.792002   0.801584

