%chk=/home/boittier/MDCM/nms_sampling/acrolein_geom.xyz.dir/acrolein_1782.chk
%nproc=8
%mem=16000MB
#p B2PLYPD3/Def2QZVP 

acrolein

0 1
C  -5.010064  -1.392065   0.861348
O  -3.945472  -0.859661   0.686898
C  -5.180452  -2.833076   1.110537
C  -6.399362  -3.304566   1.412901
H  -4.343872  -3.440341   1.106438
H  -7.313951  -2.687396   1.448430
H  -6.527236  -4.295032   1.760085
H  -5.886186  -0.777495   0.935148

