%chk=/home/boittier/MDCM/nms_sampling/acrolein_geom.xyz.dir/acrolein_1522.chk
%nproc=8
%mem=16000MB
#p B2PLYPD3/Def2QZVP 

acrolein

0 1
C  -5.018213  -1.372411   0.868504
O  -3.947214  -0.869944   0.676612
C  -5.172499  -2.826309   1.140506
C  -6.384835  -3.310693   1.420683
H  -4.335465  -3.455370   1.032183
H  -7.277932  -2.620043   1.448910
H  -6.590570  -4.405399   1.544500
H  -5.993666  -0.782447   0.860902
