%chk=/home/boittier/MDCM/nms_sampling/acrolein_geom.xyz.dir/acrolein_2678.chk
%nproc=8
%mem=16000MB
#p B2PLYPD3/Def2QZVP 

acrolein

0 1
C  -5.012371  -1.386830   0.878268
O  -3.937771  -0.884079   0.688300
C  -5.209432  -2.770772   1.078663
C  -6.370944  -3.338681   1.446144
H  -4.311216  -3.417279   1.138152
H  -7.173658  -2.635094   1.328621
H  -6.587416  -4.438547   1.705675
H  -6.075476  -0.714598   0.846313
