%chk=/home/boittier/MDCM/nms_sampling/acrolein_geom.xyz.dir/acrolein_2519.chk
%nproc=8
%mem=16000MB
#p B2PLYPD3/Def2QZVP 

acrolein

0 1
C  -4.986421  -1.430446   0.849618
O  -3.939615  -0.839071   0.713773
C  -5.183124  -2.824633   1.091808
C  -6.437946  -3.295714   1.473266
H  -4.240607  -3.408052   0.919037
H  -7.312204  -2.640626   1.471820
H  -6.529886  -4.364511   1.534190
H  -5.889828  -0.888174   0.571675

