%chk=/home/boittier/MDCM/nms_sampling/acrolein_geom.xyz.dir/acrolein_898.chk
%nproc=8
%mem=16000MB
#p B2PLYPD3/Def2QZVP 

acrolein

0 1
C  -4.994921  -1.397342   0.926572
O  -3.930510  -0.860418   0.632807
C  -5.197661  -2.825504   1.172935
C  -6.420524  -3.303626   1.376802
H  -4.291824  -3.440961   1.127971
H  -7.318251  -2.646859   1.433448
H  -6.575251  -4.344744   1.529505
H  -5.858544  -0.806841   0.925581
