%chk=/home/boittier/MDCM/nms_sampling/acrolein_geom.xyz.dir/acrolein_1182.chk
%nproc=8
%mem=16000MB
#p B2PLYPD3/Def2QZVP 

acrolein

0 1
C  -4.990146  -1.402944   0.923792
O  -3.933673  -0.854381   0.629123
C  -5.202143  -2.832016   1.173112
C  -6.421624  -3.302805   1.370241
H  -4.226018  -3.482721   1.149300
H  -7.313956  -2.619408   1.328430
H  -6.575129  -4.320955   1.626592
H  -5.874894  -0.783839   1.078315
