%chk=/home/boittier/MDCM/nms_sampling/acrolein_geom.xyz.dir/acrolein_721.chk
%nproc=8
%mem=16000MB
#p B2PLYPD3/Def2QZVP 

acrolein

0 1
C  -5.005755  -1.393376   0.879803
O  -3.943200  -0.860845   0.672595
C  -5.186626  -2.823422   1.137635
C  -6.396672  -3.310956   1.406545
H  -4.289125  -3.447348   1.069287
H  -7.319039  -2.661289   1.509518
H  -6.570453  -4.334801   1.599471
H  -5.942858  -0.770614   0.834686
