%chk=/home/boittier/MDCM/nms_sampling/acrolein_geom.xyz.dir/acrolein_664.chk
%nproc=8
%mem=16000MB
#p B2PLYPD3/Def2QZVP 

acrolein

0 1
C  -5.009845  -1.376343   0.909230
O  -3.930019  -0.875752   0.637255
C  -5.198054  -2.806245   1.179482
C  -6.403740  -3.321965   1.373769
H  -4.315707  -3.445569   1.127764
H  -7.252241  -2.691878   1.452224
H  -6.548443  -4.340816   1.532362
H  -5.943236  -0.767168   0.993861
