%chk=/home/boittier/MDCM/nms_sampling/acrolein_geom.xyz.dir/acrolein_1661.chk
%nproc=8
%mem=16000MB
#p B2PLYPD3/Def2QZVP 

acrolein

0 1
C  -4.998867  -1.374671   0.934511
O  -3.929529  -0.878151   0.619457
C  -5.208150  -2.814993   1.208018
C  -6.400219  -3.312401   1.355183
H  -4.378639  -3.425474   1.055161
H  -7.276213  -2.647705   1.420945
H  -6.570083  -4.357025   1.525063
H  -5.890968  -0.798207   0.976800
