%chk=/home/boittier/MDCM/nms_sampling/acrolein_geom.xyz.dir/acrolein_669.chk
%nproc=8
%mem=16000MB
#p B2PLYPD3/Def2QZVP 

acrolein

0 1
C  -4.999974  -1.385483   0.873592
O  -3.929497  -0.873220   0.676712
C  -5.202440  -2.801289   1.125297
C  -6.404040  -3.317973   1.410601
H  -4.309270  -3.438399   1.114810
H  -7.261521  -2.665921   1.498489
H  -6.601512  -4.387548   1.629487
H  -5.960121  -0.797271   0.872787

