%chk=/home/boittier/MDCM/nms_sampling/acrolein_geom.xyz.dir/acrolein_1631.chk
%nproc=8
%mem=16000MB
#p B2PLYPD3/Def2QZVP 

acrolein

0 1
C  -5.020128  -1.378125   0.930245
O  -3.936317  -0.876280   0.621560
C  -5.195886  -2.790754   1.201857
C  -6.383446  -3.329000   1.369087
H  -4.306222  -3.444038   1.058925
H  -7.254816  -2.670765   1.355403
H  -6.530171  -4.401870   1.490817
H  -6.008962  -0.797736   1.000492
