%chk=/home/boittier/MDCM/nms_sampling/acrolein_geom.xyz.dir/acrolein_318.chk
%nproc=8
%mem=16000MB
#p B2PLYPD3/Def2QZVP 

acrolein

0 1
C  -5.005713  -1.391733   0.911696
O  -3.933345  -0.869224   0.645776
C  -5.193254  -2.804135   1.159381
C  -6.404145  -3.318824   1.396881
H  -4.309261  -3.411880   1.094813
H  -7.259207  -2.688779   1.398909
H  -6.574027  -4.365457   1.521855
H  -5.965858  -0.768808   0.900604

