%chk=/home/boittier/MDCM/nms_sampling/acrolein_geom.xyz.dir/acrolein_2516.chk
%nproc=8
%mem=16000MB
#p B2PLYPD3/Def2QZVP 

acrolein

0 1
C  -5.023001  -1.361655   0.849688
O  -3.949772  -0.897602   0.700656
C  -5.204960  -2.783984   1.125158
C  -6.360085  -3.325981   1.446504
H  -4.431998  -3.424844   0.894038
H  -7.071176  -2.733830   1.455772
H  -6.510859  -4.380518   1.563470
H  -5.982262  -0.714994   0.709245

