%chk=/home/boittier/MDCM/nms_sampling/acrolein_geom.xyz.dir/acrolein_1981.chk
%nproc=8
%mem=16000MB
#p B2PLYPD3/Def2QZVP 

acrolein

0 1
C  -5.017707  -1.352389   0.829780
O  -3.940796  -0.896685   0.715106
C  -5.178158  -2.788392   1.076136
C  -6.392878  -3.326546   1.425336
H  -4.312483  -3.353416   1.117336
H  -7.100255  -2.655495   1.514824
H  -6.647868  -4.548976   1.893049
H  -6.063759  -0.777756   0.911687

