%chk=/home/boittier/MDCM/nms_sampling/acrolein_geom.xyz.dir/acrolein_465.chk
%nproc=8
%mem=16000MB
#p B2PLYPD3/Def2QZVP 

acrolein

0 1
C  -5.000625  -1.383184   0.894006
O  -3.926682  -0.872727   0.663267
C  -5.203986  -2.813554   1.136534
C  -6.410350  -3.307816   1.403916
H  -4.342520  -3.448333   1.100989
H  -7.225598  -2.652167   1.441275
H  -6.574613  -4.387900   1.616129
H  -5.927776  -0.796216   0.877738
