%chk=/home/boittier/MDCM/nms_sampling/acrolein_geom.xyz.dir/acrolein_1798.chk
%nproc=8
%mem=16000MB
#p B2PLYPD3/Def2QZVP 

acrolein

0 1
C  -5.008072  -1.367112   0.859822
O  -3.917074  -0.883835   0.687871
C  -5.201280  -2.797705   1.116757
C  -6.412964  -3.326062   1.433717
H  -4.321398  -3.436355   1.091548
H  -7.197939  -2.665357   1.513389
H  -6.621661  -4.396513   1.529349
H  -5.990232  -0.777135   0.798241
