%chk=/home/boittier/MDCM/nms_sampling/acrolein_geom.xyz.dir/acrolein_2267.chk
%nproc=8
%mem=16000MB
#p B2PLYPD3/Def2QZVP 

acrolein

0 1
C  -5.014431  -1.383947   0.998413
O  -3.940744  -0.886751   0.584272
C  -5.192174  -2.765538   1.183380
C  -6.405058  -3.330488   1.353406
H  -4.290067  -3.378805   1.241754
H  -7.221100  -2.666237   1.162491
H  -6.558726  -4.484749   1.587444
H  -5.810094  -0.842636   1.094265
