%chk=/home/boittier/MDCM/nms_sampling/acrolein_geom.xyz.dir/acrolein_1543.chk
%nproc=8
%mem=16000MB
#p B2PLYPD3/Def2QZVP 

acrolein

0 1
C  -5.002900  -1.376246   0.841185
O  -3.926639  -0.880870   0.696422
C  -5.199158  -2.799063   1.128464
C  -6.396121  -3.313237   1.416803
H  -4.392937  -3.433448   1.024710
H  -7.247684  -2.663670   1.568163
H  -6.639737  -4.446339   1.644058
H  -5.985645  -0.799443   0.844636

