%chk=/home/boittier/MDCM/nms_sampling/acrolein_geom.xyz.dir/acrolein_1290.chk
%nproc=8
%mem=16000MB
#p B2PLYPD3/Def2QZVP 

acrolein

0 1
C  -5.000478  -1.386274   0.862220
O  -3.926778  -0.851671   0.692461
C  -5.183042  -2.862552   1.088246
C  -6.422227  -3.299025   1.443739
H  -4.317515  -3.458347   1.123974
H  -7.329602  -2.652711   1.364622
H  -6.567352  -4.244573   1.682649
H  -5.970180  -0.755304   0.884021
