%chk=/home/boittier/MDCM/nms_sampling/acrolein_geom.xyz.dir/acrolein_441.chk
%nproc=8
%mem=16000MB
#p B2PLYPD3/Def2QZVP 

acrolein

0 1
C  -5.009566  -1.385982   0.913910
O  -3.944552  -0.861089   0.637985
C  -5.179119  -2.835457   1.174038
C  -6.406893  -3.301374   1.375698
H  -4.295750  -3.470089   1.119329
H  -7.279615  -2.645525   1.438334
H  -6.551829  -4.347003   1.557196
H  -5.887984  -0.794101   0.968872

