%chk=/home/boittier/MDCM/nms_sampling/acrolein_geom.xyz.dir/acrolein_1475.chk
%nproc=8
%mem=16000MB
#p B2PLYPD3/Def2QZVP 

acrolein

0 1
C  -5.018328  -1.379512   0.861698
O  -3.935587  -0.869391   0.683269
C  -5.198395  -2.818365   1.137059
C  -6.391987  -3.319392   1.409392
H  -4.258536  -3.469796   1.018070
H  -7.265728  -2.669783   1.501291
H  -6.550290  -4.314918   1.653375
H  -5.931368  -0.747064   0.863240
