%chk=/home/boittier/MDCM/nms_sampling/acrolein_geom.xyz.dir/acrolein_278.chk
%nproc=8
%mem=16000MB
#p B2PLYPD3/Def2QZVP 

acrolein

0 1
C  -5.001669  -1.394898   0.904669
O  -3.937422  -0.860253   0.649051
C  -5.190321  -2.830767   1.147928
C  -6.414157  -3.301450   1.398576
H  -4.280246  -3.441703   1.156243
H  -7.240730  -2.665764   1.400320
H  -6.576603  -4.339609   1.548610
H  -5.909195  -0.780109   0.951525

