%chk=/home/boittier/MDCM/nms_sampling/acrolein_geom.xyz.dir/acrolein_1985.chk
%nproc=8
%mem=16000MB
#p B2PLYPD3/Def2QZVP 

acrolein

0 1
C  -5.032858  -1.356260   0.971899
O  -3.949415  -0.900314   0.590499
C  -5.193121  -2.782780   1.222685
C  -6.373247  -3.328674   1.332829
H  -4.210903  -3.360337   1.104746
H  -7.140162  -2.639319   1.266690
H  -6.634931  -4.557826   1.592568
H  -5.881308  -0.736736   1.119444

