%chk=/home/boittier/MDCM/nms_sampling/acrolein_geom.xyz.dir/acrolein_324.chk
%nproc=8
%mem=16000MB
#p B2PLYPD3/Def2QZVP 

acrolein

0 1
C  -5.000236  -1.384349   0.911305
O  -3.932129  -0.865332   0.643740
C  -5.188356  -2.826648   1.148138
C  -6.413824  -3.310805   1.395034
H  -4.308932  -3.435851   1.177225
H  -7.325022  -2.676006   1.361981
H  -6.567400  -4.335084   1.569467
H  -5.940058  -0.763252   0.991943
