%chk=/home/boittier/MDCM/nms_sampling/acrolein_geom.xyz.dir/acrolein_837.chk
%nproc=8
%mem=16000MB
#p B2PLYPD3/Def2QZVP 

acrolein

0 1
C  -5.012468  -1.382694   0.882841
O  -3.937908  -0.873526   0.667756
C  -5.192326  -2.807741   1.136921
C  -6.397429  -3.314336   1.408609
H  -4.312863  -3.430079   1.116916
H  -7.176400  -2.667097   1.490751
H  -6.593021  -4.382746   1.557002
H  -5.950491  -0.793497   0.868151
