%chk=/home/boittier/MDCM/nms_sampling/acrolein_geom.xyz.dir/acrolein_1988.chk
%nproc=8
%mem=16000MB
#p B2PLYPD3/Def2QZVP 

acrolein

0 1
C  -5.009535  -1.375525   0.835967
O  -3.931904  -0.853986   0.714517
C  -5.182358  -2.843152   1.054918
C  -6.430506  -3.317389   1.473910
H  -4.193139  -3.511847   1.175344
H  -7.335609  -2.650040   1.404927
H  -6.458131  -4.236390   1.638934
H  -5.929798  -0.830540   0.831467

