%chk=/home/boittier/MDCM/nms_sampling/acrolein_geom.xyz.dir/acrolein_185.chk
%nproc=8
%mem=16000MB
#p B2PLYPD3/Def2QZVP 

acrolein

0 1
C  -4.996771  -1.385391   0.876354
O  -3.934380  -0.864148   0.674902
C  -5.186983  -2.826718   1.117889
C  -6.414711  -3.310867   1.412562
H  -4.318605  -3.436288   1.152812
H  -7.334614  -2.642064   1.458053
H  -6.566524  -4.341160   1.650126
H  -5.930802  -0.793064   0.912978
