%chk=/home/boittier/MDCM/nms_sampling/acrolein_geom.xyz.dir/acrolein_767.chk
%nproc=8
%mem=16000MB
#p B2PLYPD3/Def2QZVP 

acrolein

0 1
C  -5.015700  -1.364685   0.870883
O  -3.930664  -0.880681   0.677933
C  -5.199341  -2.815170   1.127204
C  -6.395373  -3.319644   1.424332
H  -4.328139  -3.449041   1.090448
H  -7.217097  -2.650175   1.472148
H  -6.557252  -4.360378   1.541659
H  -5.949065  -0.753959   0.842382

