%chk=/home/boittier/MDCM/nms_sampling/acrolein_geom.xyz.dir/acrolein_107.chk
%nproc=8
%mem=16000MB
#p B2PLYPD3/Def2QZVP 

acrolein

0 1
C  -5.001314  -1.401848   0.912605
O  -3.938132  -0.859858   0.637626
C  -5.195096  -2.821315   1.179020
C  -6.410591  -3.307081   1.386001
H  -4.277702  -3.431746   1.077918
H  -7.247952  -2.656265   1.380794
H  -6.572028  -4.328154   1.503964
H  -5.889106  -0.785810   0.967036

