%chk=/home/boittier/MDCM/nms_sampling/acrolein_geom.xyz.dir/acrolein_1757.chk
%nproc=8
%mem=16000MB
#p B2PLYPD3/Def2QZVP 

acrolein

0 1
C  -5.011655  -1.394809   0.932160
O  -3.944331  -0.870008   0.627656
C  -5.178566  -2.799788   1.182043
C  -6.394269  -3.311089   1.386351
H  -4.357221  -3.440183   1.098900
H  -7.244778  -2.666722   1.393666
H  -6.589417  -4.438342   1.425318
H  -5.953486  -0.767832   0.897116
