%chk=/home/boittier/MDCM/nms_sampling/acrolein_geom.xyz.dir/acrolein_1589.chk
%nproc=8
%mem=16000MB
#p B2PLYPD3/Def2QZVP 

acrolein

0 1
C  -4.995381  -1.374429   0.928150
O  -3.927828  -0.886602   0.625862
C  -5.204931  -2.795104   1.180569
C  -6.410678  -3.311026   1.365202
H  -4.397949  -3.435643   1.144067
H  -7.197158  -2.698029   1.370807
H  -6.612160  -4.420142   1.593314
H  -5.889609  -0.792446   1.044569
