%chk=/home/boittier/MDCM/nms_sampling/acrolein_geom.xyz.dir/acrolein_2603.chk
%nproc=8
%mem=16000MB
#p B2PLYPD3/Def2QZVP 

acrolein

0 1
C  -4.972502  -1.401985   0.948157
O  -3.926018  -0.865511   0.597116
C  -5.217671  -2.836537   1.188862
C  -6.427226  -3.283825   1.355949
H  -4.388302  -3.413809   1.317113
H  -7.309392  -2.599411   1.202730
H  -6.617519  -4.379105   1.542398
H  -5.745068  -0.800408   1.303697

