%chk=/home/boittier/MDCM/nms_sampling/acrolein_geom.xyz.dir/acrolein_1121.chk
%nproc=8
%mem=16000MB
#p B2PLYPD3/Def2QZVP 

acrolein

0 1
C  -5.011184  -1.367426   0.916503
O  -3.925809  -0.878153   0.646813
C  -5.189528  -2.807976   1.159459
C  -6.405967  -3.327724   1.388067
H  -4.299486  -3.411714   1.082110
H  -7.296795  -2.648101   1.467135
H  -6.589871  -4.392213   1.558103
H  -5.994594  -0.773655   0.839063

