%chk=/home/boittier/MDCM/nms_sampling/acrolein_geom.xyz.dir/acrolein_1326.chk
%nproc=8
%mem=16000MB
#p B2PLYPD3/Def2QZVP 

acrolein

0 1
C  -5.004910  -1.362776   0.876128
O  -3.927949  -0.878163   0.673223
C  -5.208094  -2.827740   1.110511
C  -6.396001  -3.312565   1.416383
H  -4.353453  -3.440140   1.201349
H  -7.227615  -2.669110   1.408986
H  -6.572537  -4.315398   1.657447
H  -5.962354  -0.788930   0.974145

