%chk=/home/boittier/MDCM/nms_sampling/acrolein_geom.xyz.dir/acrolein_328.chk
%nproc=8
%mem=16000MB
#p B2PLYPD3/Def2QZVP 

acrolein

0 1
C  -5.009466  -1.391142   0.877560
O  -3.937928  -0.865831   0.668836
C  -5.187506  -2.813940   1.138445
C  -6.402272  -3.311429   1.415921
H  -4.284744  -3.451253   1.112444
H  -7.262243  -2.645662   1.469207
H  -6.585380  -4.394195   1.511378
H  -5.945908  -0.770873   0.881088

