%chk=/home/boittier/MDCM/nms_sampling/acrolein_geom.xyz.dir/acrolein_2183.chk
%nproc=8
%mem=16000MB
#p B2PLYPD3/Def2QZVP 

acrolein

0 1
C  -4.988472  -1.392192   0.803150
O  -3.916731  -0.858159   0.726333
C  -5.211575  -2.836324   1.067591
C  -6.444067  -3.291795   1.463799
H  -4.203084  -3.512672   1.101506
H  -7.345488  -2.693778   1.382186
H  -6.595008  -4.331430   1.762725
H  -5.774090  -0.830034   0.978694

