%chk=/home/boittier/MDCM/nms_sampling/acrolein_geom.xyz.dir/acrolein_2429.chk
%nproc=8
%mem=16000MB
#p B2PLYPD3/Def2QZVP 

acrolein

0 1
C  -5.007972  -1.385172   0.936211
O  -3.922069  -0.862088   0.614843
C  -5.201541  -2.831886   1.216397
C  -6.395179  -3.305553   1.338616
H  -4.396091  -3.404619   1.065659
H  -7.270999  -2.697189   1.435670
H  -6.547813  -4.314437   1.587560
H  -6.051248  -0.822455   1.035510

