%chk=/home/boittier/MDCM/nms_sampling/acrolein_geom.xyz.dir/acrolein_1492.chk
%nproc=8
%mem=16000MB
#p B2PLYPD3/Def2QZVP 

acrolein

0 1
C  -4.993071  -1.396180   0.882138
O  -3.925372  -0.855956   0.677715
C  -5.196870  -2.838444   1.123291
C  -6.421292  -3.300289   1.422700
H  -4.362511  -3.434788   1.052026
H  -7.300416  -2.678357   1.461806
H  -6.542496  -4.278509   1.594246
H  -5.940426  -0.805781   0.781179
