%chk=/home/boittier/MDCM/nms_sampling/acrolein_geom.xyz.dir/acrolein_1466.chk
%nproc=8
%mem=16000MB
#p B2PLYPD3/Def2QZVP 

acrolein

0 1
C  -5.016650  -1.363779   0.881552
O  -3.923601  -0.888460   0.675521
C  -5.210970  -2.793837   1.104357
C  -6.387698  -3.338342   1.416532
H  -4.329221  -3.390287   1.184168
H  -7.262492  -2.680991   1.426178
H  -6.559845  -4.342518   1.690062
H  -5.959844  -0.734162   0.915317
