%chk=/home/boittier/MDCM/nms_sampling/acrolein_geom.xyz.dir/acrolein_89.chk
%nproc=8
%mem=16000MB
#p B2PLYPD3/Def2QZVP 

acrolein

0 1
C  -5.001561  -1.386319   0.898404
O  -3.938288  -0.864465   0.649722
C  -5.192810  -2.830364   1.167024
C  -6.403832  -3.304911   1.395502
H  -4.345401  -3.465139   1.065169
H  -7.307524  -2.643323   1.398149
H  -6.537407  -4.327730   1.528952
H  -5.898121  -0.777825   0.945426

