%chk=/home/boittier/MDCM/nms_sampling/acrolein_geom.xyz.dir/acrolein_199.chk
%nproc=8
%mem=16000MB
#p B2PLYPD3/Def2QZVP 

acrolein

0 1
C  -5.006039  -1.387041   0.865118
O  -3.939482  -0.858818   0.678231
C  -5.181436  -2.835022   1.133970
C  -6.406335  -3.307276   1.407931
H  -4.313040  -3.464796   1.089440
H  -7.280663  -2.641449   1.503940
H  -6.559296  -4.311779   1.625647
H  -5.964523  -0.797081   0.902206
