%chk=/home/boittier/MDCM/nms_sampling/acrolein_geom.xyz.dir/acrolein_2287.chk
%nproc=8
%mem=16000MB
#p B2PLYPD3/Def2QZVP 

acrolein

0 1
C  -4.972650  -1.436497   0.841077
O  -3.940755  -0.833204   0.719025
C  -5.196991  -2.833596   1.068400
C  -6.428162  -3.281033   1.431625
H  -4.208594  -3.518098   1.014806
H  -7.364407  -2.684620   1.433787
H  -6.596358  -4.351640   1.989985
H  -5.923445  -0.846929   0.836810

