%chk=/home/boittier/MDCM/nms_sampling/acrolein_geom.xyz.dir/acrolein_208.chk
%nproc=8
%mem=16000MB
#p B2PLYPD3/Def2QZVP 

acrolein

0 1
C  -5.000798  -1.389120   0.911962
O  -3.929694  -0.859966   0.642951
C  -5.191686  -2.832737   1.148125
C  -6.412931  -3.309358   1.384786
H  -4.325774  -3.464726   1.201184
H  -7.317818  -2.632777   1.402305
H  -6.551776  -4.305009   1.613128
H  -5.947084  -0.773673   1.006021

