%chk=/home/boittier/MDCM/nms_sampling/acrolein_geom.xyz.dir/acrolein_137.chk
%nproc=8
%mem=16000MB
#p B2PLYPD3/Def2QZVP 

acrolein

0 1
C  -5.009173  -1.386486   0.871863
O  -3.939788  -0.875163   0.675791
C  -5.197560  -2.797402   1.131372
C  -6.391800  -3.318021   1.409548
H  -4.297552  -3.429892   1.078239
H  -7.239254  -2.665146   1.444948
H  -6.604280  -4.403263   1.656875
H  -5.914176  -0.794226   0.915573

