%chk=/home/boittier/MDCM/nms_sampling/acrolein_geom.xyz.dir/acrolein_120.chk
%nproc=8
%mem=16000MB
#p B2PLYPD3/Def2QZVP 

acrolein

0 1
C  -5.003552  -1.376466   0.877457
O  -3.935735  -0.869350   0.673645
C  -5.184801  -2.831211   1.131304
C  -6.406768  -3.308286   1.414700
H  -4.336954  -3.437291   1.059878
H  -7.291910  -2.660661   1.399844
H  -6.587528  -4.346329   1.642826
H  -5.943757  -0.760763   0.904791

