%chk=/home/boittier/MDCM/nms_sampling/acrolein_geom.xyz.dir/acrolein_2234.chk
%nproc=8
%mem=16000MB
#p B2PLYPD3/Def2QZVP 

acrolein

0 1
C  -4.991371  -1.414092   0.939281
O  -3.938055  -0.841246   0.604286
C  -5.196220  -2.840327   1.186699
C  -6.413247  -3.298786   1.334929
H  -4.137986  -3.425978   1.329674
H  -7.309887  -2.668357   1.328899
H  -6.633174  -4.322309   1.667408
H  -5.998931  -0.841658   1.300039
