%chk=/home/boittier/MDCM/nms_sampling/acrolein_geom.xyz.dir/acrolein_1029.chk
%nproc=8
%mem=16000MB
#p B2PLYPD3/Def2QZVP 

acrolein

0 1
C  -5.004129  -1.370561   0.865839
O  -3.921717  -0.883158   0.678590
C  -5.203329  -2.799387   1.114214
C  -6.415938  -3.324961   1.418969
H  -4.276002  -3.413823   1.151474
H  -7.203752  -2.699322   1.388911
H  -6.583565  -4.398923   1.677478
H  -5.987905  -0.733106   0.991315

