%chk=/home/boittier/MDCM/nms_sampling/acrolein_geom.xyz.dir/acrolein_990.chk
%nproc=8
%mem=16000MB
#p B2PLYPD3/Def2QZVP 

acrolein

0 1
C  -5.020828  -1.366046   0.849574
O  -3.937818  -0.880267   0.697914
C  -5.190017  -2.805282   1.101362
C  -6.392474  -3.324143   1.436316
H  -4.271534  -3.455296   1.044054
H  -7.238693  -2.649805   1.381138
H  -6.575294  -4.399931   1.730214
H  -5.938782  -0.774529   0.901300

