%chk=/home/boittier/MDCM/nms_sampling/acrolein_geom.xyz.dir/acrolein_1886.chk
%nproc=8
%mem=16000MB
#p B2PLYPD3/Def2QZVP 

acrolein

0 1
C  -5.008558  -1.355930   0.945100
O  -3.918828  -0.881151   0.591930
C  -5.201539  -2.819541   1.247358
C  -6.404828  -3.305619   1.353621
H  -4.343677  -3.485213   1.125682
H  -7.191519  -2.701779   1.372053
H  -6.589552  -4.437286   1.239183
H  -6.069547  -0.792949   1.091527
