%chk=/home/boittier/MDCM/nms_sampling/acrolein_geom.xyz.dir/acrolein_1278.chk
%nproc=8
%mem=16000MB
#p B2PLYPD3/Def2QZVP 

acrolein

0 1
C  -5.002015  -1.406298   0.862554
O  -3.949108  -0.851103   0.683505
C  -5.186629  -2.840999   1.131448
C  -6.407111  -3.291189   1.428358
H  -4.241680  -3.450917   1.011457
H  -7.307293  -2.673125   1.421975
H  -6.558787  -4.338552   1.580244
H  -5.845112  -0.785656   0.854728

