%chk=/home/boittier/MDCM/nms_sampling/acrolein_geom.xyz.dir/acrolein_660.chk
%nproc=8
%mem=16000MB
#p B2PLYPD3/Def2QZVP 

acrolein

0 1
C  -5.007417  -1.379249   0.904477
O  -3.934455  -0.866179   0.647322
C  -5.186477  -2.830810   1.157589
C  -6.406658  -3.312037   1.386368
H  -4.288629  -3.440133   1.156740
H  -7.335289  -2.638821   1.481291
H  -6.571659  -4.348821   1.542879
H  -5.925650  -0.764001   0.931532

