%chk=/home/boittier/MDCM/nms_sampling/acrolein_geom.xyz.dir/acrolein_1396.chk
%nproc=8
%mem=16000MB
#p B2PLYPD3/Def2QZVP 

acrolein

0 1
C  -5.004825  -1.370371   0.852757
O  -3.922350  -0.883895   0.691004
C  -5.199501  -2.799177   1.118768
C  -6.418472  -3.319178   1.430900
H  -4.297402  -3.448091   1.082266
H  -7.244054  -2.665181   1.533858
H  -6.590602  -4.441309   1.547614
H  -5.916829  -0.746414   0.811778
