%chk=/home/boittier/MDCM/nms_sampling/acrolein_geom.xyz.dir/acrolein_901.chk
%nproc=8
%mem=16000MB
#p B2PLYPD3/Def2QZVP 

acrolein

0 1
C  -5.020636  -1.375687   0.926282
O  -3.937671  -0.870715   0.633238
C  -5.184557  -2.819932   1.153694
C  -6.394503  -3.317883   1.392588
H  -4.315891  -3.422396   1.177181
H  -7.238551  -2.668210   1.283969
H  -6.510997  -4.362385   1.568642
H  -6.002521  -0.753606   1.025518
