%chk=/home/boittier/MDCM/nms_sampling/acrolein_geom.xyz.dir/acrolein_887.chk
%nproc=8
%mem=16000MB
#p B2PLYPD3/Def2QZVP 

acrolein

0 1
C  -5.006888  -1.382641   0.868585
O  -3.930765  -0.876953   0.676019
C  -5.203268  -2.796940   1.123372
C  -6.403474  -3.320984   1.417985
H  -4.314972  -3.434528   1.124732
H  -7.217919  -2.683194   1.406030
H  -6.567812  -4.368268   1.632034
H  -5.921487  -0.789919   0.959398

