%chk=/home/boittier/MDCM/nms_sampling/acrolein_geom.xyz.dir/acrolein_37.chk
%nproc=8
%mem=16000MB
#p B2PLYPD3/Def2QZVP 

acrolein

0 1
C  -4.997883  -1.388876   0.922338
O  -3.928599  -0.862777   0.634519
C  -5.192063  -2.833922   1.158544
C  -6.416913  -3.299930   1.376017
H  -4.314173  -3.439562   1.199453
H  -7.285201  -2.631869   1.400633
H  -6.606252  -4.378468   1.601337
H  -5.932911  -0.783091   1.011738
