%chk=/home/boittier/MDCM/nms_sampling/acrolein_geom.xyz.dir/acrolein_265.chk
%nproc=8
%mem=16000MB
#p B2PLYPD3/Def2QZVP 

acrolein

0 1
C  -5.006770  -1.369240   0.863281
O  -3.928928  -0.878804   0.679532
C  -5.195174  -2.815150   1.137055
C  -6.405340  -3.317455   1.409072
H  -4.324355  -3.420822   1.073039
H  -7.222159  -2.676195   1.528659
H  -6.590718  -4.372828   1.598547
H  -5.982894  -0.752189   0.872858

