%chk=/home/boittier/MDCM/nms_sampling/acrolein_geom.xyz.dir/acrolein_1111.chk
%nproc=8
%mem=16000MB
#p B2PLYPD3/Def2QZVP 

acrolein

0 1
C  -4.999656  -1.381758   0.877891
O  -3.940142  -0.856858   0.683232
C  -5.184053  -2.852677   1.103755
C  -6.410763  -3.293647   1.432663
H  -4.320358  -3.502753   1.073685
H  -7.379359  -2.644037   1.361515
H  -6.545738  -4.306414   1.683857
H  -5.865938  -0.809714   0.849335

