%chk=/home/boittier/MDCM/nms_sampling/acrolein_geom.xyz.dir/acrolein_70.chk
%nproc=8
%mem=16000MB
#p B2PLYPD3/Def2QZVP 

acrolein

0 1
C  -4.995594  -1.389216   0.899508
O  -3.930192  -0.865495   0.661687
C  -5.199799  -2.825789   1.128527
C  -6.416106  -3.304826   1.404112
H  -4.330267  -3.439026   1.121594
H  -7.248053  -2.652194   1.393672
H  -6.581232  -4.328215   1.666782
H  -5.898691  -0.806458   0.907013
