%chk=/home/boittier/MDCM/nms_sampling/acrolein_geom.xyz.dir/acrolein_1463.chk
%nproc=8
%mem=16000MB
#p B2PLYPD3/Def2QZVP 

acrolein

0 1
C  -5.011652  -1.358596   0.925874
O  -3.931501  -0.880821   0.621728
C  -5.194027  -2.824420   1.180727
C  -6.404210  -3.321979   1.370769
H  -4.319257  -3.421731   1.202459
H  -7.225011  -2.668551   1.345035
H  -6.520309  -4.330861   1.521727
H  -5.980539  -0.723404   1.101622
