%chk=/home/boittier/MDCM/nms_sampling/acrolein_geom.xyz.dir/acrolein_449.chk
%nproc=8
%mem=16000MB
#p B2PLYPD3/Def2QZVP 

acrolein

0 1
C  -5.001278  -1.377968   0.892627
O  -3.925433  -0.874701   0.664400
C  -5.201448  -2.809101   1.141867
C  -6.410825  -3.316245   1.402760
H  -4.291521  -3.435240   1.075335
H  -7.245117  -2.650480   1.476618
H  -6.599539  -4.403534   1.593585
H  -5.973248  -0.788905   0.840739

