%chk=/home/boittier/MDCM/nms_sampling/acrolein_geom.xyz.dir/acrolein_2475.chk
%nproc=8
%mem=16000MB
#p B2PLYPD3/Def2QZVP 

acrolein

0 1
C  -5.033925  -1.338660   0.818466
O  -3.957145  -0.893682   0.722826
C  -5.183678  -2.802879   1.087356
C  -6.367355  -3.331774   1.437232
H  -4.277067  -3.459538   1.104862
H  -7.279040  -2.656159   1.757826
H  -6.486017  -4.416143   1.623942
H  -5.886071  -0.787914   0.681373
