%chk=/home/boittier/MDCM/nms_sampling/acrolein_geom.xyz.dir/acrolein_1065.chk
%nproc=8
%mem=16000MB
#p B2PLYPD3/Def2QZVP 

acrolein

0 1
C  -5.019930  -1.373624   0.862597
O  -3.943233  -0.872433   0.688908
C  -5.183994  -2.825557   1.108762
C  -6.392339  -3.311565   1.415464
H  -4.329875  -3.468244   1.076060
H  -7.203353  -2.659409   1.433112
H  -6.562544  -4.328610   1.778814
H  -5.919575  -0.753275   0.910744
