%chk=/home/boittier/MDCM/nms_sampling/acrolein_geom.xyz.dir/acrolein_1745.chk
%nproc=8
%mem=16000MB
#p B2PLYPD3/Def2QZVP 

acrolein

0 1
C  -5.007574  -1.392370   0.934877
O  -3.946083  -0.854806   0.625006
C  -5.186277  -2.834803   1.177229
C  -6.398881  -3.312630   1.365950
H  -4.237630  -3.488098   1.157215
H  -7.328010  -2.631974   1.412551
H  -6.525941  -4.283924   1.565405
H  -5.943636  -0.763716   0.980955
