%chk=/home/boittier/MDCM/nms_sampling/acrolein_geom.xyz.dir/acrolein_1468.chk
%nproc=8
%mem=16000MB
#p B2PLYPD3/Def2QZVP 

acrolein

0 1
C  -5.005227  -1.408380   0.887183
O  -3.944248  -0.845702   0.657888
C  -5.179770  -2.841509   1.139373
C  -6.412186  -3.293727   1.401766
H  -4.188622  -3.456811   1.158487
H  -7.338090  -2.679958   1.352115
H  -6.583248  -4.356173   1.632207
H  -5.909564  -0.791029   1.044910
