%chk=/home/boittier/MDCM/nms_sampling/acrolein_geom.xyz.dir/acrolein_1017.chk
%nproc=8
%mem=16000MB
#p B2PLYPD3/Def2QZVP 

acrolein

0 1
C  -4.998829  -1.406775   0.910695
O  -3.946287  -0.850406   0.644972
C  -5.189114  -2.819906   1.157613
C  -6.397144  -3.314472   1.398090
H  -4.272789  -3.469093   1.090774
H  -7.323286  -2.644740   1.323745
H  -6.548468  -4.283768   1.567841
H  -5.981930  -0.830587   0.967507

