%chk=/home/boittier/MDCM/nms_sampling/acrolein_geom.xyz.dir/acrolein_1267.chk
%nproc=8
%mem=16000MB
#p B2PLYPD3/Def2QZVP 

acrolein

0 1
C  -4.998554  -1.407925   0.865281
O  -3.942750  -0.848357   0.683707
C  -5.191038  -2.836009   1.122316
C  -6.416810  -3.301842   1.427778
H  -4.188023  -3.494807   1.092997
H  -7.270150  -2.618744   1.528551
H  -6.563068  -4.313803   1.523252
H  -5.907843  -0.779151   0.792470
