%chk=/home/boittier/MDCM/nms_sampling/acrolein_geom.xyz.dir/acrolein_948.chk
%nproc=8
%mem=16000MB
#p B2PLYPD3/Def2QZVP 

acrolein

0 1
C  -4.997657  -1.403409   0.860844
O  -3.948001  -0.851455   0.687219
C  -5.188513  -2.841680   1.138323
C  -6.403099  -3.299977   1.412333
H  -4.344071  -3.480588   0.966187
H  -7.272204  -2.655336   1.515793
H  -6.529275  -4.226421   1.653029
H  -5.894568  -0.783300   0.804521
