%chk=/home/boittier/MDCM/nms_sampling/acrolein_geom.xyz.dir/acrolein_1433.chk
%nproc=8
%mem=16000MB
#p B2PLYPD3/Def2QZVP 

acrolein

0 1
C  -4.996568  -1.414884   0.856641
O  -3.943961  -0.853892   0.695929
C  -5.190316  -2.817165   1.098897
C  -6.406431  -3.299630   1.421699
H  -4.259745  -3.435454   1.078621
H  -7.326245  -2.687013   1.454856
H  -6.586499  -4.385355   1.788771
H  -5.897450  -0.783025   0.879160
