%chk=/home/boittier/MDCM/nms_sampling/acrolein_geom.xyz.dir/acrolein_2007.chk
%nproc=8
%mem=16000MB
#p B2PLYPD3/Def2QZVP 

acrolein

0 1
C  -4.979243  -1.441384   0.920656
O  -3.953288  -0.830592   0.621023
C  -5.203428  -2.863177   1.228011
C  -6.411049  -3.273120   1.375382
H  -4.297527  -3.443170   0.964035
H  -7.252902  -2.601167   1.361498
H  -6.536332  -4.237458   1.353338
H  -5.821673  -0.818237   0.970840
