%chk=/home/boittier/MDCM/nms_sampling/acrolein_geom.xyz.dir/acrolein_80.chk
%nproc=8
%mem=16000MB
#p B2PLYPD3/Def2QZVP 

acrolein

0 1
C  -5.004630  -1.374229   0.912816
O  -3.929586  -0.874152   0.639179
C  -5.191231  -2.818805   1.172250
C  -6.410029  -3.315288   1.387236
H  -4.323500  -3.433883   1.089806
H  -7.273337  -2.659302   1.366502
H  -6.570245  -4.374780   1.536138
H  -5.964367  -0.751283   0.975781

