%chk=/home/boittier/MDCM/nms_sampling/acrolein_geom.xyz.dir/acrolein_1251.chk
%nproc=8
%mem=16000MB
#p B2PLYPD3/Def2QZVP 

acrolein

0 1
C  -5.003491  -1.368641   0.910457
O  -3.924941  -0.879985   0.626284
C  -5.187630  -2.810998   1.201351
C  -6.417914  -3.309061   1.377519
H  -4.353248  -3.452135   1.123240
H  -7.232848  -2.655539   1.404390
H  -6.628378  -4.449336   1.386828
H  -5.948555  -0.795552   1.045979

