%chk=/home/boittier/MDCM/nms_sampling/acrolein_geom.xyz.dir/acrolein_2600.chk
%nproc=8
%mem=16000MB
#p B2PLYPD3/Def2QZVP 

acrolein

0 1
C  -4.984027  -1.408080   0.961877
O  -3.912723  -0.843689   0.603700
C  -5.208286  -2.854350   1.161604
C  -6.425952  -3.290139   1.342441
H  -4.403187  -3.428766   1.396708
H  -7.374848  -2.644308   1.400580
H  -6.496149  -4.274219   1.642068
H  -5.999525  -0.829321   1.133730
