%chk=/home/boittier/MDCM/nms_sampling/acrolein_geom.xyz.dir/acrolein_2504.chk
%nproc=8
%mem=16000MB
#p B2PLYPD3/Def2QZVP 

acrolein

0 1
C  -4.996870  -1.381968   0.792178
O  -3.915259  -0.891639   0.725303
C  -5.226297  -2.781016   1.121301
C  -6.392128  -3.314307   1.463657
H  -4.412825  -3.405794   0.930162
H  -7.113540  -2.700305   1.567564
H  -6.673737  -4.480069   1.463221
H  -6.039752  -0.713665   0.782485

