%chk=/home/boittier/MDCM/nms_sampling/acrolein_geom.xyz.dir/acrolein_284.chk
%nproc=8
%mem=16000MB
#p B2PLYPD3/Def2QZVP 

acrolein

0 1
C  -4.996092  -1.398297   0.910879
O  -3.930905  -0.858713   0.640238
C  -5.194167  -2.822545   1.161827
C  -6.416654  -3.309584   1.380485
H  -4.294688  -3.436154   1.166087
H  -7.306338  -2.641480   1.410745
H  -6.571060  -4.336469   1.582733
H  -5.936533  -0.803008   1.009076
