%chk=/home/boittier/MDCM/nms_sampling/acrolein_geom.xyz.dir/acrolein_1688.chk
%nproc=8
%mem=16000MB
#p B2PLYPD3/Def2QZVP 

acrolein

0 1
C  -5.005654  -1.410015   0.926642
O  -3.944352  -0.845063   0.631494
C  -5.181979  -2.843064   1.178603
C  -6.400687  -3.297029   1.389299
H  -4.305830  -3.451326   1.083047
H  -7.307402  -2.664207   1.362963
H  -6.520512  -4.298769   1.460961
H  -5.978993  -0.777489   0.921114

