%chk=/home/boittier/MDCM/nms_sampling/acrolein_geom.xyz.dir/acrolein_1504.chk
%nproc=8
%mem=16000MB
#p B2PLYPD3/Def2QZVP 

acrolein

0 1
C  -5.006807  -1.404446   0.924656
O  -3.948669  -0.853406   0.627709
C  -5.186483  -2.831227   1.177190
C  -6.396078  -3.304210   1.368839
H  -4.282646  -3.443080   1.185869
H  -7.381706  -2.669716   1.438992
H  -6.541301  -4.296181   1.524958
H  -5.832168  -0.789407   1.005629
