%chk=/home/boittier/MDCM/nms_sampling/acrolein_geom.xyz.dir/acrolein_2402.chk
%nproc=8
%mem=16000MB
#p B2PLYPD3/Def2QZVP 

acrolein

0 1
C  -5.028413  -1.344702   0.826241
O  -3.957137  -0.892435   0.718371
C  -5.158051  -2.799815   1.128289
C  -6.373237  -3.323867   1.423753
H  -4.414011  -3.425932   0.830481
H  -7.212750  -2.666754   1.640190
H  -6.542604  -4.490580   1.718703
H  -6.041571  -0.786062   0.661852
