%chk=/home/boittier/MDCM/nms_sampling/acrolein_geom.xyz.dir/acrolein_2617.chk
%nproc=8
%mem=16000MB
#p B2PLYPD3/Def2QZVP 

acrolein

0 1
C  -4.968015  -1.425157   0.889925
O  -3.929699  -0.843367   0.682214
C  -5.224510  -2.849509   1.088525
C  -6.429659  -3.277638   1.439133
H  -4.325074  -3.491010   1.097184
H  -7.251962  -2.582677   1.319662
H  -6.589259  -4.261582   1.713501
H  -5.787576  -0.862603   0.817632
