%chk=/home/boittier/MDCM/nms_sampling/acrolein_geom.xyz.dir/acrolein_954.chk
%nproc=8
%mem=16000MB
#p B2PLYPD3/Def2QZVP 

acrolein

0 1
C  -4.998866  -1.390271   0.855811
O  -3.925150  -0.855777   0.690055
C  -5.186682  -2.841783   1.137457
C  -6.426139  -3.304902   1.416711
H  -4.262420  -3.445217   0.960013
H  -7.410772  -2.644329   1.518028
H  -6.550794  -4.345371   1.635036
H  -5.928888  -0.753928   0.799991

