%chk=/home/boittier/MDCM/nms_sampling/acrolein_geom.xyz.dir/acrolein_1650.chk
%nproc=8
%mem=16000MB
#p B2PLYPD3/Def2QZVP 

acrolein

0 1
C  -4.991773  -1.405352   0.858806
O  -3.929015  -0.855706   0.678425
C  -5.196828  -2.830611   1.141036
C  -6.427290  -3.299053   1.423474
H  -4.280884  -3.472115   1.072238
H  -7.321044  -2.641470   1.487962
H  -6.608513  -4.320998   1.485242
H  -5.827791  -0.781809   0.880943

