%chk=/home/boittier/MDCM/nms_sampling/acrolein_geom.xyz.dir/acrolein_1984.chk
%nproc=8
%mem=16000MB
#p B2PLYPD3/Def2QZVP 

acrolein

0 1
C  -4.970760  -1.416477   0.800973
O  -3.914145  -0.850529   0.719892
C  -5.216155  -2.818043   1.108168
C  -6.429998  -3.307245   1.463028
H  -4.265947  -3.405436   1.040682
H  -7.399936  -2.668829   1.576611
H  -6.649999  -4.324152   1.452239
H  -5.967174  -0.846383   0.807882
