%chk=/home/boittier/MDCM/nms_sampling/acrolein_geom.xyz.dir/acrolein_498.chk
%nproc=8
%mem=16000MB
#p B2PLYPD3/Def2QZVP 

acrolein

0 1
C  -5.007930  -1.384390   0.897008
O  -3.939624  -0.859145   0.664272
C  -5.187845  -2.840803   1.128630
C  -6.405814  -3.302444   1.403617
H  -4.294289  -3.480726   1.109945
H  -7.277946  -2.647882   1.421471
H  -6.531355  -4.306809   1.668345
H  -5.922140  -0.794627   0.883042

