%chk=/home/boittier/MDCM/nms_sampling/acrolein_geom.xyz.dir/acrolein_2035.chk
%nproc=8
%mem=16000MB
#p B2PLYPD3/Def2QZVP 

acrolein

0 1
C  -5.037190  -1.371659   0.865662
O  -3.951447  -0.889151   0.679104
C  -5.166623  -2.769791   1.130607
C  -6.354716  -3.342604   1.426740
H  -4.459901  -3.416629   1.005325
H  -7.199945  -2.692056   1.287985
H  -6.607143  -4.401231   1.668747
H  -6.048654  -0.741306   0.972693
