%chk=/home/boittier/MDCM/nms_sampling/acrolein_geom.xyz.dir/acrolein_774.chk
%nproc=8
%mem=16000MB
#p B2PLYPD3/Def2QZVP 

acrolein

0 1
C  -5.005032  -1.380462   0.870370
O  -3.927545  -0.873785   0.673042
C  -5.199343  -2.813470   1.141950
C  -6.405381  -3.312945   1.403634
H  -4.334978  -3.415531   1.087142
H  -7.221460  -2.654363   1.507805
H  -6.587405  -4.388533   1.599582
H  -5.969502  -0.783605   0.902395

