%chk=/home/boittier/MDCM/nms_sampling/acrolein_geom.xyz.dir/acrolein_810.chk
%nproc=8
%mem=16000MB
#p B2PLYPD3/Def2QZVP 

acrolein

0 1
C  -4.996110  -1.392245   0.878764
O  -3.933178  -0.867074   0.668878
C  -5.195708  -2.817645   1.132001
C  -6.406455  -3.304414   1.402204
H  -4.343832  -3.448997   1.132715
H  -7.281380  -2.655350   1.443213
H  -6.614303  -4.383125   1.661703
H  -5.930084  -0.778119   0.959098

