%chk=/home/boittier/MDCM/nms_sampling/acrolein_geom.xyz.dir/acrolein_184.chk
%nproc=8
%mem=16000MB
#p B2PLYPD3/Def2QZVP 

acrolein

0 1
C  -4.999341  -1.391198   0.905342
O  -3.932528  -0.861129   0.645128
C  -5.193962  -2.836391   1.164843
C  -6.411586  -3.298632   1.393065
H  -4.341207  -3.444613   1.093703
H  -7.308183  -2.665024   1.371324
H  -6.557834  -4.329650   1.544121
H  -5.896343  -0.777942   0.972063

