%chk=/home/boittier/MDCM/nms_sampling/acrolein_geom.xyz.dir/acrolein_2550.chk
%nproc=8
%mem=16000MB
#p B2PLYPD3/Def2QZVP 

acrolein

0 1
C  -5.032315  -1.334469   0.834033
O  -3.920849  -0.900431   0.692896
C  -5.193309  -2.809863   1.138815
C  -6.380328  -3.319614   1.398650
H  -4.419139  -3.455816   1.088823
H  -7.233642  -2.715643   1.662279
H  -6.576532  -4.460497   1.640958
H  -6.023960  -0.666370   0.909161
