%chk=/home/boittier/MDCM/nms_sampling/acrolein_geom.xyz.dir/acrolein_2474.chk
%nproc=8
%mem=16000MB
#p B2PLYPD3/Def2QZVP 

acrolein

0 1
C  -5.044855  -1.341240   0.958324
O  -3.944368  -0.891372   0.592860
C  -5.197791  -2.808636   1.255803
C  -6.359136  -3.325720   1.323981
H  -4.309428  -3.487990   1.022752
H  -7.093238  -2.712429   1.450879
H  -6.520460  -4.346914   1.436962
H  -5.997149  -0.770256   1.007139
