%chk=/home/boittier/MDCM/nms_sampling/acrolein_geom.xyz.dir/acrolein_60.chk
%nproc=8
%mem=16000MB
#p B2PLYPD3/Def2QZVP 

acrolein

0 1
C  -5.001292  -1.384038   0.881444
O  -3.928655  -0.873326   0.671664
C  -5.192947  -2.808914   1.136130
C  -6.410277  -3.312408   1.408728
H  -4.349336  -3.412833   1.067672
H  -7.252200  -2.657717   1.473820
H  -6.611655  -4.404360   1.608580
H  -5.947191  -0.795826   0.851721
