%chk=/home/boittier/MDCM/nms_sampling/acrolein_geom.xyz.dir/acrolein_598.chk
%nproc=8
%mem=16000MB
#p B2PLYPD3/Def2QZVP 

acrolein

0 1
C  -5.010347  -1.381190   0.910003
O  -3.941551  -0.873731   0.643846
C  -5.193757  -2.808744   1.160852
C  -6.394902  -3.321101   1.385026
H  -4.300348  -3.422112   1.151794
H  -7.233752  -2.676780   1.471524
H  -6.552638  -4.338131   1.531880
H  -5.932947  -0.764942   0.924994

