%chk=/home/boittier/MDCM/nms_sampling/acrolein_geom.xyz.dir/acrolein_1139.chk
%nproc=8
%mem=16000MB
#p B2PLYPD3/Def2QZVP 

acrolein

0 1
C  -4.984852  -1.393065   0.935930
O  -3.924669  -0.852954   0.624421
C  -5.194051  -2.851506   1.157611
C  -6.435165  -3.292464   1.386715
H  -4.290778  -3.472025   1.228242
H  -7.267697  -2.624673   1.292995
H  -6.605254  -4.315166   1.532245
H  -5.958647  -0.809239   1.044202
