%chk=/home/boittier/MDCM/nms_sampling/acrolein_geom.xyz.dir/acrolein_849.chk
%nproc=8
%mem=16000MB
#p B2PLYPD3/Def2QZVP 

acrolein

0 1
C  -5.006123  -1.394971   0.877730
O  -3.942772  -0.862490   0.672965
C  -5.184570  -2.822795   1.130686
C  -6.408361  -3.304876   1.416638
H  -4.272626  -3.450289   1.071563
H  -7.264638  -2.656591   1.399608
H  -6.601108  -4.358464   1.622118
H  -5.866356  -0.783991   0.904762

