%chk=/home/boittier/MDCM/nms_sampling/acrolein_geom.xyz.dir/acrolein_621.chk
%nproc=8
%mem=16000MB
#p B2PLYPD3/Def2QZVP 

acrolein

0 1
C  -5.005885  -1.396414   0.907850
O  -3.942242  -0.857760   0.642314
C  -5.187553  -2.825371   1.157670
C  -6.405217  -3.309182   1.379439
H  -4.283682  -3.464747   1.175251
H  -7.297659  -2.674190   1.403364
H  -6.536820  -4.298301   1.620616
H  -5.907165  -0.788058   1.033369

