%chk=/home/boittier/MDCM/nms_sampling/acrolein_geom.xyz.dir/acrolein_2615.chk
%nproc=8
%mem=16000MB
#p B2PLYPD3/Def2QZVP 

acrolein

0 1
C  -4.971486  -1.404394   0.942200
O  -3.926620  -0.861178   0.617419
C  -5.214966  -2.812599   1.150072
C  -6.431813  -3.294477   1.361609
H  -4.265888  -3.489797   1.356172
H  -7.398856  -2.700187   1.340574
H  -6.621481  -4.382222   1.655994
H  -5.787749  -0.856144   1.152396

