%chk=/home/boittier/MDCM/nms_sampling/acrolein_geom.xyz.dir/acrolein_580.chk
%nproc=8
%mem=16000MB
#p B2PLYPD3/Def2QZVP 

acrolein

0 1
C  -5.013674  -1.377533   0.912055
O  -3.936967  -0.872371   0.643233
C  -5.192534  -2.810837   1.154458
C  -6.399453  -3.319507   1.390921
H  -4.295732  -3.449519   1.133428
H  -7.243208  -2.659632   1.340776
H  -6.537474  -4.355467   1.604106
H  -5.938566  -0.792507   1.000033
