%chk=/home/boittier/MDCM/nms_sampling/acrolein_geom.xyz.dir/acrolein_1529.chk
%nproc=8
%mem=16000MB
#p B2PLYPD3/Def2QZVP 

acrolein

0 1
C  -5.020284  -1.371213   0.873943
O  -3.937212  -0.881418   0.685188
C  -5.182830  -2.801043   1.123717
C  -6.381504  -3.325091   1.416169
H  -4.397506  -3.392158   1.031609
H  -7.251417  -2.687118   1.563756
H  -6.590402  -4.391704   1.620115
H  -6.008580  -0.756542   0.723585

