%chk=/home/boittier/MDCM/nms_sampling/acrolein_geom.xyz.dir/acrolein_1245.chk
%nproc=8
%mem=16000MB
#p B2PLYPD3/Def2QZVP 

acrolein

0 1
C  -5.014764  -1.357252   0.934958
O  -3.925682  -0.888332   0.621154
C  -5.208066  -2.802248   1.163807
C  -6.394621  -3.332441   1.381470
H  -4.280354  -3.447190   1.245499
H  -7.211690  -2.682589   1.302181
H  -6.585215  -4.347025   1.519159
H  -5.976182  -0.718618   1.079162

