%chk=/home/boittier/MDCM/nms_sampling/acrolein_geom.xyz.dir/acrolein_1569.chk
%nproc=8
%mem=16000MB
#p B2PLYPD3/Def2QZVP 

acrolein

0 1
C  -4.994884  -1.400825   0.851504
O  -3.945257  -0.861875   0.687474
C  -5.187633  -2.812495   1.130004
C  -6.413848  -3.305260   1.410455
H  -4.260413  -3.414839   1.077270
H  -7.291273  -2.682418   1.550928
H  -6.589088  -4.385823   1.638515
H  -5.865533  -0.835815   0.885991

