%chk=/home/boittier/MDCM/nms_sampling/acrolein_geom.xyz.dir/acrolein_1069.chk
%nproc=8
%mem=16000MB
#p B2PLYPD3/Def2QZVP 

acrolein

0 1
C  -5.001162  -1.389210   0.864414
O  -3.929715  -0.861124   0.688210
C  -5.190500  -2.833038   1.110947
C  -6.407920  -3.308882   1.430810
H  -4.371114  -3.458090   1.085276
H  -7.293250  -2.654786   1.485613
H  -6.564098  -4.284920   1.601886
H  -5.978561  -0.754633   0.806004

