%chk=/home/boittier/MDCM/nms_sampling/acrolein_geom.xyz.dir/acrolein_1414.chk
%nproc=8
%mem=16000MB
#p B2PLYPD3/Def2QZVP 

acrolein

0 1
C  -5.014379  -1.373518   0.867558
O  -3.944777  -0.881059   0.682713
C  -5.189232  -2.812342   1.105690
C  -6.393768  -3.310481   1.431173
H  -4.299255  -3.409469   1.153080
H  -7.152888  -2.665564   1.429361
H  -6.620240  -4.418338   1.607517
H  -5.900352  -0.757811   0.890910
