%chk=/home/boittier/MDCM/nms_sampling/acrolein_geom.xyz.dir/acrolein_2302.chk
%nproc=8
%mem=16000MB
#p B2PLYPD3/Def2QZVP 

acrolein

0 1
C  -5.006184  -1.379998   0.959501
O  -3.916349  -0.891627   0.593925
C  -5.216193  -2.771779   1.251605
C  -6.408478  -3.318906   1.332315
H  -4.336639  -3.452732   0.998659
H  -7.227744  -2.722903   1.382686
H  -6.644980  -4.477139   1.447766
H  -5.845644  -0.749447   1.014541
