%chk=/home/boittier/MDCM/nms_sampling/acrolein_geom.xyz.dir/acrolein_2478.chk
%nproc=8
%mem=16000MB
#p B2PLYPD3/Def2QZVP 

acrolein

0 1
C  -4.998071  -1.359327   0.931681
O  -3.914245  -0.891371   0.616948
C  -5.228291  -2.792577   1.171836
C  -6.396186  -3.327815   1.344972
H  -4.343553  -3.453084   1.304108
H  -7.218219  -2.686963   1.378429
H  -6.639357  -4.361318   1.687400
H  -5.981731  -0.793174   1.206532

