%chk=/home/boittier/MDCM/nms_sampling/acrolein_geom.xyz.dir/acrolein_2363.chk
%nproc=8
%mem=16000MB
#p B2PLYPD3/Def2QZVP 

acrolein

0 1
C  -5.007827  -1.392712   0.811473
O  -3.953998  -0.877585   0.728766
C  -5.183296  -2.773884   1.115833
C  -6.379178  -3.323640   1.444328
H  -4.387885  -3.431162   0.827620
H  -7.163527  -2.659327   1.609452
H  -6.535480  -4.477833   1.675522
H  -6.065239  -0.793974   0.654971

