%chk=/home/boittier/MDCM/nms_sampling/acrolein_geom.xyz.dir/acrolein_1941.chk
%nproc=8
%mem=16000MB
#p B2PLYPD3/Def2QZVP 

acrolein

0 1
C  -5.008872  -1.367148   0.896010
O  -3.934716  -0.858312   0.686359
C  -5.177606  -2.875449   1.074340
C  -6.418579  -3.293392   1.419827
H  -4.343323  -3.463828   1.116020
H  -7.385711  -2.612598   1.379739
H  -6.520407  -4.253402   1.906517
H  -5.809704  -0.806991   0.803146
