%chk=/home/boittier/MDCM/nms_sampling/acrolein_geom.xyz.dir/acrolein_445.chk
%nproc=8
%mem=16000MB
#p B2PLYPD3/Def2QZVP 

acrolein

0 1
C  -5.013552  -1.376928   0.875042
O  -3.942652  -0.875989   0.672410
C  -5.186738  -2.806663   1.128964
C  -6.391842  -3.321741   1.406122
H  -4.309121  -3.417360   1.127519
H  -7.275532  -2.680009   1.456865
H  -6.569825  -4.370146   1.652468
H  -5.929353  -0.767171   0.938117

