%chk=/home/boittier/MDCM/nms_sampling/acrolein_geom.xyz.dir/acrolein_2537.chk
%nproc=8
%mem=16000MB
#p B2PLYPD3/Def2QZVP 

acrolein

0 1
C  -5.029388  -1.350676   0.857815
O  -3.912833  -0.892885   0.700431
C  -5.203873  -2.797324   1.091758
C  -6.388712  -3.340459   1.421723
H  -4.291260  -3.369306   1.028916
H  -7.211293  -2.696214   1.398512
H  -6.603074  -4.409224   1.898858
H  -6.089406  -0.687495   0.882870
