%chk=/home/boittier/MDCM/nms_sampling/acrolein_geom.xyz.dir/acrolein_2360.chk
%nproc=8
%mem=16000MB
#p B2PLYPD3/Def2QZVP 

acrolein

0 1
C  -5.037683  -1.357467   0.884638
O  -3.942111  -0.886563   0.656293
C  -5.176032  -2.791533   1.129474
C  -6.367673  -3.331275   1.413581
H  -4.321826  -3.427105   1.231110
H  -7.288180  -2.668109   1.296765
H  -6.549844  -4.497648   1.580374
H  -6.049750  -0.754567   1.106461
