%chk=/home/boittier/MDCM/nms_sampling/acrolein_geom.xyz.dir/acrolein_1749.chk
%nproc=8
%mem=16000MB
#p B2PLYPD3/Def2QZVP 

acrolein

0 1
C  -5.009772  -1.386142   0.929199
O  -3.948145  -0.880900   0.628980
C  -5.195132  -2.791371   1.181322
C  -6.390599  -3.318661   1.375641
H  -4.311086  -3.397888   1.127815
H  -7.185160  -2.675170   1.459738
H  -6.566233  -4.425697   1.466396
H  -5.887491  -0.761971   0.904783
