%chk=/home/boittier/MDCM/nms_sampling/acrolein_geom.xyz.dir/acrolein_761.chk
%nproc=8
%mem=16000MB
#p B2PLYPD3/Def2QZVP 

acrolein

0 1
C  -5.013436  -1.374723   0.908536
O  -3.935929  -0.871862   0.651842
C  -5.190071  -2.823204   1.141489
C  -6.393743  -3.314578   1.393787
H  -4.320788  -3.433522   1.136663
H  -7.244191  -2.647636   1.404411
H  -6.561918  -4.367901   1.634736
H  -5.998454  -0.752161   0.927452

