%chk=/home/boittier/MDCM/nms_sampling/acrolein_geom.xyz.dir/acrolein_2410.chk
%nproc=8
%mem=16000MB
#p B2PLYPD3/Def2QZVP 

acrolein

0 1
C  -5.029629  -1.370213   0.942221
O  -3.945966  -0.886059   0.625025
C  -5.171960  -2.773425   1.188933
C  -6.369146  -3.344173   1.360615
H  -4.379237  -3.340807   1.076069
H  -7.302446  -2.711265   1.482121
H  -6.585043  -4.415769   1.543091
H  -6.007018  -0.816573   0.859117
