%chk=/home/boittier/MDCM/nms_sampling/acrolein_geom.xyz.dir/acrolein_2113.chk
%nproc=8
%mem=16000MB
#p B2PLYPD3/Def2QZVP 

acrolein

0 1
C  -5.007824  -1.394318   0.806669
O  -3.946402  -0.872242   0.719239
C  -5.190196  -2.792298   1.085902
C  -6.388098  -3.310452   1.462757
H  -4.340345  -3.383258   1.103163
H  -7.096091  -2.723066   1.457884
H  -6.579413  -4.447901   1.605479
H  -6.069651  -0.826396   0.920141
