%chk=/home/boittier/MDCM/nms_sampling/acrolein_geom.xyz.dir/acrolein_1610.chk
%nproc=8
%mem=16000MB
#p B2PLYPD3/Def2QZVP 

acrolein

0 1
C  -5.008749  -1.376171   0.850330
O  -3.923228  -0.884522   0.690751
C  -5.219240  -2.793802   1.137359
C  -6.392710  -3.318599   1.432374
H  -4.373674  -3.434742   0.958205
H  -7.160910  -2.677048   1.463415
H  -6.584638  -4.380471   1.547674
H  -5.931130  -0.793272   0.814857

