%chk=/home/boittier/MDCM/nms_sampling/acrolein_geom.xyz.dir/acrolein_2646.chk
%nproc=8
%mem=16000MB
#p B2PLYPD3/Def2QZVP 

acrolein

0 1
C  -5.016375  -1.372644   0.975053
O  -3.944475  -0.881616   0.588123
C  -5.185217  -2.812758   1.224658
C  -6.383660  -3.298918   1.365285
H  -4.322691  -3.487147   1.119446
H  -7.158052  -2.674651   1.288989
H  -6.688134  -4.491470   1.287100
H  -5.955153  -0.721768   0.979528

