%chk=/home/boittier/MDCM/nms_sampling/acrolein_geom.xyz.dir/acrolein_1437.chk
%nproc=8
%mem=16000MB
#p B2PLYPD3/Def2QZVP 

acrolein

0 1
C  -5.007583  -1.397923   0.861404
O  -3.936168  -0.870674   0.689322
C  -5.192690  -2.790388   1.094686
C  -6.398269  -3.316462   1.434780
H  -4.299179  -3.384855   1.169085
H  -7.265895  -2.676273   1.450877
H  -6.602467  -4.459124   1.636888
H  -5.948775  -0.814699   0.878590

