%chk=/home/boittier/MDCM/nms_sampling/acrolein_geom.xyz.dir/acrolein_407.chk
%nproc=8
%mem=16000MB
#p B2PLYPD3/Def2QZVP 

acrolein

0 1
C  -4.996080  -1.393319   0.888194
O  -3.937390  -0.865404   0.665655
C  -5.193808  -2.825382   1.139230
C  -6.412401  -3.303294   1.411889
H  -4.335838  -3.428534   1.079438
H  -7.257471  -2.639980   1.432470
H  -6.573139  -4.352945   1.564233
H  -5.883398  -0.776225   0.866693

