%chk=/home/boittier/MDCM/nms_sampling/acrolein_geom.xyz.dir/acrolein_495.chk
%nproc=8
%mem=16000MB
#p B2PLYPD3/Def2QZVP 

acrolein

0 1
C  -4.995358  -1.405159   0.895290
O  -3.938924  -0.855688   0.650090
C  -5.188619  -2.819665   1.167402
C  -6.413390  -3.308505   1.392809
H  -4.283049  -3.456157   1.089525
H  -7.299710  -2.636904   1.434418
H  -6.576224  -4.341338   1.516896
H  -5.935628  -0.796860   0.950975

