%chk=/home/boittier/MDCM/nms_sampling/acrolein_geom.xyz.dir/acrolein_778.chk
%nproc=8
%mem=16000MB
#p B2PLYPD3/Def2QZVP 

acrolein

0 1
C  -5.009549  -1.385129   0.876454
O  -3.936254  -0.870068   0.677509
C  -5.188101  -2.813691   1.122729
C  -6.404805  -3.311219   1.423926
H  -4.301730  -3.422723   1.071893
H  -7.209656  -2.662442   1.420929
H  -6.574730  -4.405082   1.604844
H  -5.974226  -0.774506   0.852345

