%chk=/home/boittier/MDCM/nms_sampling/acrolein_geom.xyz.dir/acrolein_1116.chk
%nproc=8
%mem=16000MB
#p B2PLYPD3/Def2QZVP 

acrolein

0 1
C  -5.019393  -1.380171   0.892405
O  -3.943404  -0.884454   0.648212
C  -5.189726  -2.786799   1.162124
C  -6.389245  -3.325529   1.377934
H  -4.311795  -3.381798   1.170459
H  -7.184274  -2.653344   1.453956
H  -6.609907  -4.436900   1.607773
H  -5.877357  -0.778178   1.051797

