%chk=/home/boittier/MDCM/nms_sampling/acrolein_geom.xyz.dir/acrolein_374.chk
%nproc=8
%mem=16000MB
#p B2PLYPD3/Def2QZVP 

acrolein

0 1
C  -4.997387  -1.391226   0.910348
O  -3.935820  -0.862789   0.638780
C  -5.200006  -2.831030   1.165478
C  -6.407772  -3.303754   1.385411
H  -4.324374  -3.445453   1.149605
H  -7.289325  -2.650212   1.367569
H  -6.533223  -4.320908   1.554763
H  -5.900678  -0.776909   1.027092

