%chk=/home/boittier/MDCM/nms_sampling/acrolein_geom.xyz.dir/acrolein_593.chk
%nproc=8
%mem=16000MB
#p B2PLYPD3/Def2QZVP 

acrolein

0 1
C  -4.995663  -1.401316   0.871527
O  -3.939372  -0.856223   0.679350
C  -5.192882  -2.827824   1.124520
C  -6.410800  -3.300364   1.419191
H  -4.280408  -3.437713   1.054815
H  -7.288743  -2.657843   1.404018
H  -6.564728  -4.358039   1.661905
H  -5.929828  -0.813773   0.894749

