%chk=/home/boittier/MDCM/nms_sampling/acrolein_geom.xyz.dir/acrolein_1394.chk
%nproc=8
%mem=16000MB
#p B2PLYPD3/Def2QZVP 

acrolein

0 1
C  -4.999101  -1.376913   0.935929
O  -3.932646  -0.870007   0.625399
C  -5.197139  -2.831800   1.175515
C  -6.398350  -3.305762   1.367359
H  -4.400044  -3.434895   1.175751
H  -7.328584  -2.642437   1.459099
H  -6.581907  -4.325578   1.524993
H  -5.906513  -0.806015   0.938310

