%chk=/home/boittier/MDCM/nms_sampling/acrolein_geom.xyz.dir/acrolein_2145.chk
%nproc=8
%mem=16000MB
#p B2PLYPD3/Def2QZVP 

acrolein

0 1
C  -4.981716  -1.397842   0.919910
O  -3.932555  -0.853550   0.624733
C  -5.178462  -2.863268   1.187522
C  -6.439029  -3.269743   1.377447
H  -4.302062  -3.457929   1.107240
H  -7.293369  -2.671699   1.236987
H  -6.671691  -4.417411   1.560534
H  -5.906564  -0.735325   1.142169
