%chk=/home/boittier/MDCM/nms_sampling/acrolein_geom.xyz.dir/acrolein_490.chk
%nproc=8
%mem=16000MB
#p B2PLYPD3/Def2QZVP 

acrolein

0 1
C  -5.014794  -1.376605   0.880831
O  -3.941110  -0.873443   0.676765
C  -5.187409  -2.817412   1.119118
C  -6.388777  -3.313359   1.416865
H  -4.327312  -3.424739   1.084092
H  -7.250765  -2.661832   1.430523
H  -6.565326  -4.392356   1.664143
H  -5.973661  -0.759825   0.856672

