%chk=/home/boittier/MDCM/nms_sampling/acrolein_geom.xyz.dir/acrolein_2083.chk
%nproc=8
%mem=16000MB
#p B2PLYPD3/Def2QZVP 

acrolein

0 1
C  -5.001333  -1.395416   0.844903
O  -3.942534  -0.876955   0.681510
C  -5.206027  -2.778180   1.163579
C  -6.395913  -3.322346   1.389979
H  -4.280141  -3.362377   1.057414
H  -7.101915  -2.675534   1.703346
H  -6.543111  -4.462489   1.533905
H  -6.023162  -0.828394   0.867287

