%chk=/home/boittier/MDCM/nms_sampling/acrolein_geom.xyz.dir/acrolein_438.chk
%nproc=8
%mem=16000MB
#p B2PLYPD3/Def2QZVP 

acrolein

0 1
C  -4.992525  -1.394551   0.870147
O  -3.934753  -0.860597   0.673967
C  -5.189781  -2.826172   1.132858
C  -6.418614  -3.305818   1.417578
H  -4.290892  -3.431354   1.104295
H  -7.329258  -2.656938   1.445017
H  -6.602154  -4.343028   1.565660
H  -5.897814  -0.806944   0.913906

