%chk=/home/boittier/MDCM/nms_sampling/acrolein_geom.xyz.dir/acrolein_737.chk
%nproc=8
%mem=16000MB
#p B2PLYPD3/Def2QZVP 

acrolein

0 1
C  -5.007960  -1.393070   0.879522
O  -3.938923  -0.860088   0.677438
C  -5.188268  -2.824772   1.123981
C  -6.399629  -3.312859   1.412799
H  -4.297772  -3.436664   1.070154
H  -7.299780  -2.644696   1.473012
H  -6.541229  -4.330713   1.655895
H  -5.966407  -0.772873   0.831364

