%chk=/home/boittier/MDCM/nms_sampling/acrolein_geom.xyz.dir/acrolein_1611.chk
%nproc=8
%mem=16000MB
#p B2PLYPD3/Def2QZVP 

acrolein

0 1
C  -4.995931  -1.410763   0.921226
O  -3.939530  -0.853272   0.627222
C  -5.181547  -2.824457   1.200518
C  -6.420276  -3.301719   1.376386
H  -4.280380  -3.421343   1.046980
H  -7.327894  -2.658650   1.379826
H  -6.572274  -4.371171   1.451510
H  -5.901482  -0.778784   0.974234

