%chk=/home/boittier/MDCM/nms_sampling/acrolein_geom.xyz.dir/acrolein_1258.chk
%nproc=8
%mem=16000MB
#p B2PLYPD3/Def2QZVP 

acrolein

0 1
C  -5.009983  -1.377078   0.917458
O  -3.927943  -0.878541   0.631649
C  -5.195690  -2.808101   1.167541
C  -6.394325  -3.315195   1.389154
H  -4.390345  -3.400998   1.191234
H  -7.277427  -2.641205   1.350140
H  -6.600034  -4.421856   1.477240
H  -5.951334  -0.773985   1.036362
