%chk=/home/boittier/MDCM/nms_sampling/acrolein_geom.xyz.dir/acrolein_2247.chk
%nproc=8
%mem=16000MB
#p B2PLYPD3/Def2QZVP 

acrolein

0 1
C  -5.024624  -1.340648   0.916783
O  -3.936742  -0.893467   0.664320
C  -5.186120  -2.816305   1.095623
C  -6.379968  -3.332365   1.399369
H  -4.365898  -3.413414   1.188905
H  -7.111251  -2.681723   1.393561
H  -6.576430  -4.342722   1.838874
H  -6.112617  -0.673604   0.866238

