%chk=/home/boittier/MDCM/nms_sampling/acrolein_geom.xyz.dir/acrolein_763.chk
%nproc=8
%mem=16000MB
#p B2PLYPD3/Def2QZVP 

acrolein

0 1
C  -5.000574  -1.383395   0.876514
O  -3.929798  -0.875458   0.674308
C  -5.206202  -2.806417   1.118653
C  -6.405546  -3.313459   1.419826
H  -4.326036  -3.439666   1.136674
H  -7.228310  -2.657087   1.411830
H  -6.566977  -4.390774   1.621905
H  -5.932071  -0.772513   0.919243

