%chk=/home/boittier/MDCM/nms_sampling/acrolein_geom.xyz.dir/acrolein_1009.chk
%nproc=8
%mem=16000MB
#p B2PLYPD3/Def2QZVP 

acrolein

0 1
C  -5.003081  -1.378623   0.871362
O  -3.924878  -0.874185   0.680251
C  -5.187786  -2.803136   1.106827
C  -6.420797  -3.314800   1.427305
H  -4.273600  -3.449444   1.152598
H  -7.279530  -2.699158   1.411630
H  -6.637492  -4.432761   1.634807
H  -5.957429  -0.795538   0.908690
