%chk=/home/boittier/MDCM/nms_sampling/acrolein_geom.xyz.dir/acrolein_2351.chk
%nproc=8
%mem=16000MB
#p B2PLYPD3/Def2QZVP 

acrolein

0 1
C  -4.976738  -1.399723   0.813529
O  -3.926008  -0.858650   0.725728
C  -5.221362  -2.830624   1.113639
C  -6.426525  -3.304860   1.437169
H  -4.299892  -3.417555   0.879108
H  -7.272629  -2.669936   1.627029
H  -6.571238  -4.222086   1.697529
H  -5.840994  -0.865529   0.692061

