%chk=/home/boittier/MDCM/nms_sampling/acrolein_geom.xyz.dir/acrolein_2350.chk
%nproc=8
%mem=16000MB
#p B2PLYPD3/Def2QZVP 

acrolein

0 1
C  -5.033838  -1.367681   0.810250
O  -3.950149  -0.892244   0.710978
C  -5.169761  -2.760332   1.127826
C  -6.361652  -3.350667   1.426761
H  -4.358505  -3.318276   1.041307
H  -7.261706  -2.728182   1.685617
H  -6.618486  -4.448573   1.546676
H  -6.028074  -0.804002   0.825570

