%chk=/home/boittier/MDCM/nms_sampling/acrolein_geom.xyz.dir/acrolein_2198.chk
%nproc=8
%mem=16000MB
#p B2PLYPD3/Def2QZVP 

acrolein

0 1
C  -5.008734  -1.387994   0.824052
O  -3.932716  -0.869937   0.698143
C  -5.184227  -2.809288   1.117567
C  -6.431469  -3.314471   1.438384
H  -4.209370  -3.476274   1.109566
H  -7.271621  -2.631943   1.449492
H  -6.592499  -4.402697   1.568954
H  -5.794803  -0.754571   0.995805
