%chk=/home/boittier/MDCM/nms_sampling/acrolein_geom.xyz.dir/acrolein_15.chk
%nproc=8
%mem=16000MB
#p B2PLYPD3/Def2QZVP 

acrolein

0 1
C  -5.006869  -1.367398   0.909501
O  -3.930754  -0.879005   0.643049
C  -5.191130  -2.817715   1.170666
C  -6.404270  -3.314528   1.384169
H  -4.346952  -3.423499   1.088072
H  -7.267411  -2.687003   1.426541
H  -6.580153  -4.379591   1.546716
H  -5.958910  -0.753419   0.938500

