%chk=/home/boittier/MDCM/nms_sampling/acrolein_geom.xyz.dir/acrolein_817.chk
%nproc=8
%mem=16000MB
#p B2PLYPD3/Def2QZVP 

acrolein

0 1
C  -5.008954  -1.372030   0.871524
O  -3.932184  -0.876760   0.671561
C  -5.192480  -2.814862   1.141648
C  -6.401218  -3.314063   1.405191
H  -4.333031  -3.452874   1.095387
H  -7.226629  -2.675888   1.488479
H  -6.576507  -4.385397   1.590999
H  -5.988549  -0.745603   0.916670

