%chk=/home/boittier/MDCM/nms_sampling/acrolein_geom.xyz.dir/acrolein_11.chk
%nproc=8
%mem=16000MB
#p B2PLYPD3/Def2QZVP 

acrolein

0 1
C  -5.007732  -1.369852   0.903369
O  -3.932411  -0.881370   0.645965
C  -5.197407  -2.802293   1.151088
C  -6.398680  -3.324920   1.394718
H  -4.330425  -3.432888   1.170623
H  -7.280457  -2.673814   1.360514
H  -6.582393  -4.361314   1.572405
H  -5.918459  -0.778350   1.024052

