%chk=/home/boittier/MDCM/nms_sampling/acrolein_geom.xyz.dir/acrolein_90.chk
%nproc=8
%mem=16000MB
#p B2PLYPD3/Def2QZVP 

acrolein

0 1
C  -5.006753  -1.387534   0.878591
O  -3.942404  -0.868995   0.668170
C  -5.184869  -2.811953   1.135748
C  -6.404857  -3.310958   1.408342
H  -4.280751  -3.453543   1.110501
H  -7.256026  -2.657749   1.417349
H  -6.577827  -4.404864   1.617652
H  -5.925657  -0.766744   0.950345

