%chk=/home/boittier/MDCM/nms_sampling/acrolein_geom.xyz.dir/acrolein_38.chk
%nproc=8
%mem=16000MB
#p B2PLYPD3/Def2QZVP 

acrolein

0 1
C  -5.019581  -1.372208   0.924390
O  -3.938524  -0.877539   0.636863
C  -5.189549  -2.808791   1.154348
C  -6.390892  -3.318517   1.390992
H  -4.298604  -3.449682   1.148391
H  -7.249543  -2.677936   1.321280
H  -6.574086  -4.388361   1.582090
H  -5.932356  -0.758319   0.981941

