%chk=/home/boittier/MDCM/nms_sampling/acrolein_geom.xyz.dir/acrolein_623.chk
%nproc=8
%mem=16000MB
#p B2PLYPD3/Def2QZVP 

acrolein

0 1
C  -5.005979  -1.394529   0.917565
O  -3.939348  -0.860080   0.642941
C  -5.184508  -2.826380   1.153095
C  -6.408946  -3.302337   1.385053
H  -4.287802  -3.457262   1.141759
H  -7.243235  -2.655562   1.403130
H  -6.574841  -4.373981   1.612121
H  -5.947855  -0.783490   0.944478

