%chk=/home/boittier/MDCM/nms_sampling/acrolein_geom.xyz.dir/acrolein_646.chk
%nproc=8
%mem=16000MB
#p B2PLYPD3/Def2QZVP 

acrolein

0 1
C  -5.003130  -1.386705   0.874535
O  -3.934836  -0.870621   0.676068
C  -5.193247  -2.812660   1.127268
C  -6.402152  -3.309215   1.411013
H  -4.333010  -3.441178   1.115043
H  -7.254407  -2.638980   1.518021
H  -6.605006  -4.406278   1.601253
H  -5.940762  -0.787183   0.851389

