%chk=/home/boittier/MDCM/nms_sampling/acrolein_geom.xyz.dir/acrolein_1239.chk
%nproc=8
%mem=16000MB
#p B2PLYPD3/Def2QZVP 

acrolein

0 1
C  -5.003580  -1.401021   0.937395
O  -3.946404  -0.858919   0.627335
C  -5.187052  -2.825618   1.180268
C  -6.402404  -3.301713   1.371536
H  -4.307556  -3.411918   1.099579
H  -7.244344  -2.622507   1.427902
H  -6.579882  -4.361961   1.529899
H  -5.878884  -0.835073   0.896575
