%chk=/home/boittier/MDCM/nms_sampling/acrolein_geom.xyz.dir/acrolein_2251.chk
%nproc=8
%mem=16000MB
#p B2PLYPD3/Def2QZVP 

acrolein

0 1
C  -5.006076  -1.386425   0.890358
O  -3.924115  -0.867200   0.686796
C  -5.202772  -2.829742   1.082150
C  -6.415535  -3.306137   1.442986
H  -4.208543  -3.405670   1.072198
H  -7.362082  -2.674686   1.326542
H  -6.662365  -4.355332   1.737204
H  -5.781169  -0.770965   0.768339
