%chk=/home/boittier/MDCM/nms_sampling/acrolein_geom.xyz.dir/acrolein_1138.chk
%nproc=8
%mem=16000MB
#p B2PLYPD3/Def2QZVP 

acrolein

0 1
C  -5.008946  -1.355950   0.932398
O  -3.925027  -0.891403   0.622969
C  -5.199003  -2.795511   1.180546
C  -6.410302  -3.332219   1.378484
H  -4.278441  -3.392512   1.110342
H  -7.219979  -2.665196   1.246300
H  -6.598030  -4.423202   1.568230
H  -5.954547  -0.765491   1.074465
