%chk=/home/boittier/MDCM/nms_sampling/acrolein_geom.xyz.dir/acrolein_931.chk
%nproc=8
%mem=16000MB
#p B2PLYPD3/Def2QZVP 

acrolein

0 1
C  -4.991614  -1.398568   0.929424
O  -3.929983  -0.865785   0.623274
C  -5.197118  -2.814208   1.197645
C  -6.424404  -3.309749   1.359716
H  -4.297771  -3.419125   1.104172
H  -7.320101  -2.670796   1.451092
H  -6.603855  -4.343717   1.512213
H  -5.831282  -0.773830   0.974042

