%chk=/home/boittier/MDCM/nms_sampling/acrolein_geom.xyz.dir/acrolein_1162.chk
%nproc=8
%mem=16000MB
#p B2PLYPD3/Def2QZVP 

acrolein

0 1
C  -5.023758  -1.359818   0.907303
O  -3.943440  -0.882374   0.649117
C  -5.192975  -2.807997   1.154259
C  -6.376223  -3.325854   1.384560
H  -4.282110  -3.411414   1.095915
H  -7.212269  -2.706477   1.383908
H  -6.544455  -4.375574   1.670229
H  -6.016240  -0.773685   0.971851
