%chk=/home/boittier/MDCM/nms_sampling/acrolein_geom.xyz.dir/acrolein_909.chk
%nproc=8
%mem=16000MB
#p B2PLYPD3/Def2QZVP 

acrolein

0 1
C  -4.986698  -1.396675   0.869300
O  -3.928935  -0.852727   0.688954
C  -5.192717  -2.837661   1.107687
C  -6.429408  -3.305720   1.439063
H  -4.253881  -3.452871   1.042807
H  -7.361639  -2.674441   1.423992
H  -6.554792  -4.293760   1.610800
H  -5.961369  -0.786059   0.780454
