%chk=/home/boittier/MDCM/nms_sampling/acrolein_geom.xyz.dir/acrolein_1277.chk
%nproc=8
%mem=16000MB
#p B2PLYPD3/Def2QZVP 

acrolein

0 1
C  -5.001984  -1.374993   0.892284
O  -3.939495  -0.863854   0.651387
C  -5.191515  -2.844457   1.149154
C  -6.408942  -3.309389   1.396924
H  -4.298355  -3.445910   1.179010
H  -7.296647  -2.620829   1.390921
H  -6.527633  -4.270528   1.564032
H  -5.891864  -0.805715   1.033206

