%chk=/home/boittier/MDCM/nms_sampling/acrolein_geom.xyz.dir/acrolein_273.chk
%nproc=8
%mem=16000MB
#p B2PLYPD3/Def2QZVP 

acrolein

0 1
C  -5.010692  -1.367929   0.922251
O  -3.928301  -0.877232   0.636819
C  -5.189836  -2.812607   1.158690
C  -6.408439  -3.322015   1.381109
H  -4.309921  -3.417640   1.154472
H  -7.298034  -2.668175   1.370099
H  -6.554923  -4.381293   1.608095
H  -5.953343  -0.777449   0.989449

