%chk=/home/boittier/MDCM/nms_sampling/acrolein_geom.xyz.dir/acrolein_854.chk
%nproc=8
%mem=16000MB
#p B2PLYPD3/Def2QZVP 

acrolein

0 1
C  -5.012837  -1.374359   0.928579
O  -3.944602  -0.872771   0.634018
C  -5.186729  -2.824086   1.155294
C  -6.391256  -3.311555   1.388104
H  -4.312697  -3.427475   1.158266
H  -7.262961  -2.640231   1.317734
H  -6.567853  -4.374722   1.586872
H  -5.919089  -0.778489   0.988380
