%chk=/home/boittier/MDCM/nms_sampling/acrolein_geom.xyz.dir/acrolein_1768.chk
%nproc=8
%mem=16000MB
#p B2PLYPD3/Def2QZVP 

acrolein

0 1
C  -5.013230  -1.386046   0.864005
O  -3.940763  -0.868969   0.675301
C  -5.185116  -2.819649   1.126468
C  -6.385503  -3.306839   1.415858
H  -4.381007  -3.421591   1.146652
H  -7.296716  -2.676305   1.420189
H  -6.571722  -4.390263   1.613806
H  -5.961179  -0.758668   0.991564

