%chk=/home/boittier/MDCM/nms_sampling/acrolein_geom.xyz.dir/acrolein_1579.chk
%nproc=8
%mem=16000MB
#p B2PLYPD3/Def2QZVP 

acrolein

0 1
C  -5.001392  -1.393807   0.849742
O  -3.947695  -0.854810   0.685615
C  -5.173607  -2.840966   1.138930
C  -6.412534  -3.292003   1.406265
H  -4.278727  -3.447219   1.067520
H  -7.265242  -2.678985   1.571348
H  -6.584397  -4.368303   1.614383
H  -5.935655  -0.821815   0.892538
