%chk=/home/boittier/MDCM/nms_sampling/acrolein_geom.xyz.dir/acrolein_1270.chk
%nproc=8
%mem=16000MB
#p B2PLYPD3/Def2QZVP 

acrolein

0 1
C  -5.015458  -1.383504   0.876415
O  -3.948218  -0.860021   0.685745
C  -5.173759  -2.842299   1.095487
C  -6.401245  -3.300606   1.438482
H  -4.315428  -3.475275   1.086388
H  -7.315389  -2.663710   1.337593
H  -6.522851  -4.314342   1.695765
H  -5.864306  -0.775268   0.855742

