%chk=/home/boittier/MDCM/nms_sampling/acrolein_geom.xyz.dir/acrolein_874.chk
%nproc=8
%mem=16000MB
#p B2PLYPD3/Def2QZVP 

acrolein

0 1
C  -5.009456  -1.381656   0.878845
O  -3.934664  -0.872674   0.674078
C  -5.190587  -2.804811   1.115174
C  -6.400578  -3.322944   1.420146
H  -4.326413  -3.420123   1.145432
H  -7.273528  -2.669844   1.405191
H  -6.545121  -4.363786   1.634822
H  -5.968296  -0.781450   0.917592
