%chk=/home/boittier/MDCM/nms_sampling/acrolein_geom.xyz.dir/acrolein_1680.chk
%nproc=8
%mem=16000MB
#p B2PLYPD3/Def2QZVP 

acrolein

0 1
C  -5.021015  -1.360854   0.864067
O  -3.948209  -0.887934   0.685692
C  -5.186135  -2.789573   1.102002
C  -6.381455  -3.334248   1.416019
H  -4.286466  -3.436689   1.176586
H  -7.221736  -2.691487   1.488649
H  -6.593198  -4.378366   1.712492
H  -5.929250  -0.785581   0.915760
