%chk=/home/boittier/MDCM/nms_sampling/acrolein_geom.xyz.dir/acrolein_1617.chk
%nproc=8
%mem=16000MB
#p B2PLYPD3/Def2QZVP 

acrolein

0 1
C  -5.000754  -1.401123   0.941443
O  -3.944599  -0.850515   0.625262
C  -5.175411  -2.837600   1.160374
C  -6.423028  -3.298101   1.383638
H  -4.202322  -3.438887   1.172088
H  -7.321287  -2.639015   1.297536
H  -6.574234  -4.375890   1.568579
H  -5.885107  -0.827704   0.991377
