%chk=/home/boittier/MDCM/nms_sampling/acrolein_geom.xyz.dir/acrolein_1983.chk
%nproc=8
%mem=16000MB
#p B2PLYPD3/Def2QZVP 

acrolein

0 1
C  -4.998246  -1.378045   0.925646
O  -3.928687  -0.876493   0.605270
C  -5.191363  -2.790463   1.223190
C  -6.410726  -3.343469   1.357510
H  -4.348262  -3.431447   1.209852
H  -7.350806  -2.669526   1.421260
H  -6.463452  -4.331604   1.310000
H  -6.062331  -0.706517   1.137037
