%chk=/home/boittier/MDCM/nms_sampling/acrolein_geom.xyz.dir/acrolein_934.chk
%nproc=8
%mem=16000MB
#p B2PLYPD3/Def2QZVP 

acrolein

0 1
C  -5.010263  -1.398825   0.925549
O  -3.948182  -0.848884   0.624537
C  -5.165282  -2.836577   1.181661
C  -6.406309  -3.306542   1.385971
H  -4.257537  -3.483517   1.190242
H  -7.388615  -2.676861   1.417816
H  -6.555933  -4.303124   1.362766
H  -5.933531  -0.778880   0.968470
