%chk=/home/boittier/MDCM/nms_sampling/acrolein_geom.xyz.dir/acrolein_1595.chk
%nproc=8
%mem=16000MB
#p B2PLYPD3/Def2QZVP 

acrolein

0 1
C  -5.000166  -1.378634   0.873250
O  -3.925309  -0.861351   0.679544
C  -5.193092  -2.847142   1.120422
C  -6.427777  -3.301628   1.408919
H  -4.298307  -3.447219   1.090069
H  -7.291234  -2.643404   1.459357
H  -6.529803  -4.307447   1.714115
H  -5.906154  -0.800752   0.893510
