%chk=/home/boittier/MDCM/nms_sampling/acrolein_geom.xyz.dir/acrolein_539.chk
%nproc=8
%mem=16000MB
#p B2PLYPD3/Def2QZVP 

acrolein

0 1
C  -5.000178  -1.388000   0.911690
O  -3.934159  -0.863128   0.640166
C  -5.187013  -2.829928   1.164267
C  -6.414963  -3.302146   1.388182
H  -4.294351  -3.461300   1.116189
H  -7.302103  -2.642134   1.333381
H  -6.589781  -4.383649   1.580190
H  -5.923045  -0.773936   1.018281

