%chk=/home/boittier/MDCM/nms_sampling/acrolein_geom.xyz.dir/acrolein_2093.chk
%nproc=8
%mem=16000MB
#p B2PLYPD3/Def2QZVP 

acrolein

0 1
C  -5.014072  -1.358259   0.852714
O  -3.917131  -0.886813   0.702091
C  -5.222447  -2.819674   1.060197
C  -6.383141  -3.320408   1.462298
H  -4.482829  -3.384529   1.199115
H  -7.233999  -2.618945   1.339375
H  -6.519243  -4.302815   1.687551
H  -5.910908  -0.806232   0.897355
