%chk=/home/boittier/MDCM/nms_sampling/acrolein_geom.xyz.dir/acrolein_2698.chk
%nproc=8
%mem=16000MB
#p B2PLYPD3/Def2QZVP 

acrolein

0 1
C  -4.976191  -1.420968   0.830643
O  -3.920168  -0.841073   0.715106
C  -5.213552  -2.853998   1.053134
C  -6.434454  -3.280129   1.472350
H  -4.296806  -3.420869   1.212732
H  -7.287174  -2.634777   1.420113
H  -6.626453  -4.284822   1.637074
H  -5.872280  -0.874567   0.868786

