%chk=/home/boittier/MDCM/nms_sampling/acrolein_geom.xyz.dir/acrolein_1527.chk
%nproc=8
%mem=16000MB
#p B2PLYPD3/Def2QZVP 

acrolein

0 1
C  -5.005879  -1.384965   0.909824
O  -3.943748  -0.861428   0.646063
C  -5.197136  -2.830646   1.148336
C  -6.399124  -3.307996   1.398988
H  -4.222832  -3.442323   1.111633
H  -7.289269  -2.698029   1.265463
H  -6.528217  -4.312085   1.637552
H  -5.922751  -0.811452   1.027777
