%chk=/home/boittier/MDCM/nms_sampling/acrolein_geom.xyz.dir/acrolein_2647.chk
%nproc=8
%mem=16000MB
#p B2PLYPD3/Def2QZVP 

acrolein

0 1
C  -5.003336  -1.396645   0.811082
O  -3.929093  -0.858882   0.721827
C  -5.202717  -2.829427   1.117613
C  -6.407303  -3.314824   1.460383
H  -4.287921  -3.418859   0.868729
H  -7.441644  -2.636016   1.495063
H  -6.530891  -4.275080   1.564110
H  -5.809816  -0.773764   0.740989

