%chk=/home/boittier/MDCM/nms_sampling/acrolein_geom.xyz.dir/acrolein_1377.chk
%nproc=8
%mem=16000MB
#p B2PLYPD3/Def2QZVP 

acrolein

0 1
C  -4.999091  -1.377276   0.909080
O  -3.924274  -0.879043   0.643019
C  -5.205056  -2.801627   1.154720
C  -6.416388  -3.320252   1.396821
H  -4.262075  -3.449476   1.124673
H  -7.238835  -2.644491   1.277364
H  -6.605243  -4.417442   1.599406
H  -5.941650  -0.750203   1.044972
