%chk=/home/boittier/MDCM/nms_sampling/acrolein_geom.xyz.dir/acrolein_2168.chk
%nproc=8
%mem=16000MB
#p B2PLYPD3/Def2QZVP 

acrolein

0 1
C  -5.022888  -1.336908   0.810092
O  -3.912438  -0.907549   0.729525
C  -5.229232  -2.791563   1.109572
C  -6.372314  -3.330223   1.457602
H  -4.524213  -3.363444   0.822534
H  -7.189471  -2.755137   1.513518
H  -6.494068  -4.352746   1.664582
H  -5.959794  -0.780122   0.692494
