%chk=/home/boittier/MDCM/nms_sampling/acrolein_geom.xyz.dir/acrolein_985.chk
%nproc=8
%mem=16000MB
#p B2PLYPD3/Def2QZVP 

acrolein

0 1
C  -5.007770  -1.365635   0.918305
O  -3.923174  -0.881372   0.635161
C  -5.200988  -2.814442   1.184726
C  -6.418409  -3.314431   1.371274
H  -4.305450  -3.418614   1.059934
H  -7.183666  -2.661689   1.412104
H  -6.567106  -4.395152   1.573860
H  -5.917674  -0.791511   0.962761

