%chk=/home/boittier/MDCM/nms_sampling/acrolein_geom.xyz.dir/acrolein_2140.chk
%nproc=8
%mem=16000MB
#p B2PLYPD3/Def2QZVP 

acrolein

0 1
C  -5.003394  -1.378658   0.924980
O  -3.905072  -0.894716   0.639315
C  -5.217274  -2.762384   1.176160
C  -6.411739  -3.325675   1.406849
H  -4.347364  -3.414702   0.994801
H  -7.264231  -2.729272   1.354705
H  -6.663475  -4.532795   1.405511
H  -5.944530  -0.724735   0.801844
