%chk=/home/boittier/MDCM/nms_sampling/acrolein_geom.xyz.dir/acrolein_559.chk
%nproc=8
%mem=16000MB
#p B2PLYPD3/Def2QZVP 

acrolein

0 1
C  -5.007627  -1.383160   0.879578
O  -3.936070  -0.873205   0.673886
C  -5.198895  -2.803127   1.132426
C  -6.399337  -3.318492   1.420308
H  -4.267253  -3.441918   1.050807
H  -7.212731  -2.670295   1.429260
H  -6.597237  -4.380413   1.577239
H  -5.952013  -0.798196   0.842092

