%chk=/home/boittier/MDCM/nms_sampling/acrolein_geom.xyz.dir/acrolein_2194.chk
%nproc=8
%mem=16000MB
#p B2PLYPD3/Def2QZVP 

acrolein

0 1
C  -4.991764  -1.375269   0.838804
O  -3.929333  -0.862624   0.721294
C  -5.202903  -2.845092   1.038406
C  -6.417977  -3.305861   1.477594
H  -4.295780  -3.441756   1.147811
H  -7.499893  -2.664603   1.364309
H  -6.514432  -4.266390   1.752335
H  -5.774607  -0.846120   0.804692
