%chk=/home/boittier/MDCM/nms_sampling/acrolein_geom.xyz.dir/acrolein_1771.chk
%nproc=8
%mem=16000MB
#p B2PLYPD3/Def2QZVP 

acrolein

0 1
C  -5.018042  -1.375706   0.869252
O  -3.935793  -0.880019   0.678573
C  -5.206704  -2.795832   1.143929
C  -6.383190  -3.327581   1.424721
H  -4.321639  -3.392061   0.970505
H  -7.220574  -2.702457   1.425000
H  -6.526067  -4.344177   1.545922
H  -5.935984  -0.807028   0.824543
