%chk=/home/boittier/MDCM/nms_sampling/acrolein_geom.xyz.dir/acrolein_1367.chk
%nproc=8
%mem=16000MB
#p B2PLYPD3/Def2QZVP 

acrolein

0 1
C  -5.027895  -1.367005   0.904335
O  -3.941204  -0.877567   0.643110
C  -5.195962  -2.813506   1.183531
C  -6.379651  -3.319930   1.387644
H  -4.318732  -3.452358   1.030593
H  -7.182713  -2.656663   1.408628
H  -6.499469  -4.354677   1.495741
H  -5.959280  -0.784138   0.936425
