%chk=/home/boittier/MDCM/nms_sampling/acrolein_geom.xyz.dir/acrolein_2567.chk
%nproc=8
%mem=16000MB
#p B2PLYPD3/Def2QZVP 

acrolein

0 1
C  -5.038379  -1.346384   0.941974
O  -3.931952  -0.889359   0.628641
C  -5.173452  -2.808912   1.176762
C  -6.380068  -3.334524   1.365796
H  -4.381928  -3.449925   1.118199
H  -7.122076  -2.685447   1.525615
H  -6.574739  -4.367650   1.526133
H  -6.149009  -0.662412   0.814893

