%chk=/home/boittier/MDCM/nms_sampling/acrolein_geom.xyz.dir/acrolein_2486.chk
%nproc=8
%mem=16000MB
#p B2PLYPD3/Def2QZVP 

acrolein

0 1
C  -4.998272  -1.407139   0.942088
O  -3.962272  -0.852263   0.609233
C  -5.184269  -2.847767   1.202819
C  -6.379454  -3.291374   1.374352
H  -4.393944  -3.465444   1.210912
H  -7.302667  -2.644154   1.474445
H  -6.568031  -4.249914   1.246840
H  -5.864779  -0.752674   0.934782

