%chk=/home/boittier/MDCM/nms_sampling/acrolein_geom.xyz.dir/acrolein_612.chk
%nproc=8
%mem=16000MB
#p B2PLYPD3/Def2QZVP 

acrolein

0 1
C  -5.009088  -1.378924   0.885618
O  -3.938354  -0.875661   0.667489
C  -5.194943  -2.808328   1.124916
C  -6.397989  -3.317045   1.414434
H  -4.280880  -3.440438   1.139943
H  -7.256335  -2.644446   1.399659
H  -6.587480  -4.400231   1.613561
H  -5.911674  -0.766483   0.926057

