%chk=/home/boittier/MDCM/nms_sampling/acrolein_geom.xyz.dir/acrolein_183.chk
%nproc=8
%mem=16000MB
#p B2PLYPD3/Def2QZVP 

acrolein

0 1
C  -5.006353  -1.386653   0.901618
O  -3.940717  -0.872616   0.647377
C  -5.197064  -2.806598   1.163859
C  -6.398357  -3.314189   1.393120
H  -4.309155  -3.434634   1.091413
H  -7.195063  -2.654589   1.378820
H  -6.569106  -4.376332   1.554239
H  -5.924445  -0.791667   0.976056

