%chk=/home/boittier/MDCM/nms_sampling/acrolein_geom.xyz.dir/acrolein_923.chk
%nproc=8
%mem=16000MB
#p B2PLYPD3/Def2QZVP 

acrolein

0 1
C  -5.005146  -1.374732   0.936826
O  -3.932546  -0.877487   0.619954
C  -5.196741  -2.804887   1.186972
C  -6.395767  -3.326030   1.359151
H  -4.356359  -3.398171   1.123758
H  -7.225614  -2.650322   1.328962
H  -6.559554  -4.363527   1.623124
H  -6.032188  -0.782135   1.066756

