%chk=/home/boittier/MDCM/nms_sampling/acrolein_geom.xyz.dir/acrolein_1761.chk
%nproc=8
%mem=16000MB
#p B2PLYPD3/Def2QZVP 

acrolein

0 1
C  -4.996145  -1.406490   0.922217
O  -3.935270  -0.851250   0.624640
C  -5.191229  -2.830892   1.188725
C  -6.411598  -3.300477   1.376629
H  -4.318698  -3.469463   1.177823
H  -7.302143  -2.626135   1.450812
H  -6.577265  -4.322086   1.390739
H  -5.934121  -0.823937   0.983553

