%chk=/home/boittier/MDCM/nms_sampling/acrolein_geom.xyz.dir/acrolein_437.chk
%nproc=8
%mem=16000MB
#p B2PLYPD3/Def2QZVP 

acrolein

0 1
C  -5.003410  -1.376374   0.877539
O  -3.930988  -0.874052   0.675269
C  -5.203090  -2.813873   1.129854
C  -6.401781  -3.321100   1.417269
H  -4.316962  -3.429818   1.074550
H  -7.273038  -2.650095   1.469505
H  -6.550180  -4.330187   1.583560
H  -5.942618  -0.781233   0.836703

