%chk=/home/boittier/MDCM/nms_sampling/acrolein_geom.xyz.dir/acrolein_1952.chk
%nproc=8
%mem=16000MB
#p B2PLYPD3/Def2QZVP 

acrolein

0 1
C  -5.004517  -1.355301   0.849537
O  -3.920852  -0.895391   0.712346
C  -5.219271  -2.783530   1.090525
C  -6.407107  -3.349423   1.463850
H  -4.330229  -3.445100   0.956657
H  -7.268814  -2.677149   1.495704
H  -6.475242  -4.289381   1.579251
H  -5.906673  -0.712482   0.610043

