%chk=/home/boittier/MDCM/nms_sampling/acrolein_geom.xyz.dir/acrolein_1602.chk
%nproc=8
%mem=16000MB
#p B2PLYPD3/Def2QZVP 

acrolein

0 1
C  -5.013639  -1.364822   0.932833
O  -3.925293  -0.875421   0.624792
C  -5.192142  -2.815390   1.168541
C  -6.403175  -3.320048   1.366961
H  -4.304778  -3.459608   1.233476
H  -7.360968  -2.689038   1.437065
H  -6.562190  -4.368899   1.548102
H  -5.946518  -0.789329   1.007342

