%chk=/home/boittier/MDCM/nms_sampling/acrolein_geom.xyz.dir/acrolein_605.chk
%nproc=8
%mem=16000MB
#p B2PLYPD3/Def2QZVP 

acrolein

0 1
C  -5.002124  -1.384177   0.891786
O  -3.936856  -0.864727   0.667151
C  -5.188469  -2.831356   1.123777
C  -6.407950  -3.308020   1.409793
H  -4.327613  -3.443105   1.121827
H  -7.272667  -2.656990   1.408542
H  -6.547054  -4.325933   1.656586
H  -5.956373  -0.761147   0.895713
