%chk=/home/boittier/MDCM/nms_sampling/acrolein_geom.xyz.dir/acrolein_633.chk
%nproc=8
%mem=16000MB
#p B2PLYPD3/Def2QZVP 

acrolein

0 1
C  -5.007578  -1.377176   0.918278
O  -3.926931  -0.872062   0.635291
C  -5.198877  -2.818292   1.170270
C  -6.407323  -3.313557   1.378893
H  -4.285935  -3.438125   1.164780
H  -7.266697  -2.679259   1.459328
H  -6.579437  -4.368244   1.503516
H  -5.952964  -0.769102   0.949035

