%chk=/home/boittier/MDCM/nms_sampling/acrolein_geom.xyz.dir/acrolein_1145.chk
%nproc=8
%mem=16000MB
#p B2PLYPD3/Def2QZVP 

acrolein

0 1
C  -4.992204  -1.395987   0.857234
O  -3.925574  -0.850041   0.691653
C  -5.194348  -2.849651   1.109613
C  -6.428716  -3.298049   1.433986
H  -4.249478  -3.444610   1.033647
H  -7.331213  -2.613940   1.364487
H  -6.579952  -4.318487   1.698928
H  -5.937168  -0.823704   0.899060

