%chk=/home/boittier/MDCM/nms_sampling/acrolein_geom.xyz.dir/acrolein_642.chk
%nproc=8
%mem=16000MB
#p B2PLYPD3/Def2QZVP 

acrolein

0 1
C  -4.998236  -1.394058   0.876153
O  -3.932209  -0.859214   0.675265
C  -5.191541  -2.831854   1.123026
C  -6.415229  -3.306121   1.408391
H  -4.319541  -3.438319   1.108440
H  -7.286773  -2.660479   1.435275
H  -6.561588  -4.305769   1.695802
H  -5.938661  -0.778265   0.924556

