%chk=/home/boittier/MDCM/nms_sampling/acrolein_geom.xyz.dir/acrolein_2192.chk
%nproc=8
%mem=16000MB
#p B2PLYPD3/Def2QZVP 

acrolein

0 1
C  -5.024460  -1.351576   0.916026
O  -3.955424  -0.876981   0.618947
C  -5.156709  -2.822874   1.205950
C  -6.390798  -3.323718   1.372308
H  -4.265889  -3.406486   1.151221
H  -7.354242  -2.659748   1.364535
H  -6.505353  -4.430890   1.390465
H  -5.989291  -0.798615   1.108947

