%chk=/home/boittier/MDCM/nms_sampling/acrolein_geom.xyz.dir/acrolein_1312.chk
%nproc=8
%mem=16000MB
#p B2PLYPD3/Def2QZVP 

acrolein

0 1
C  -5.012868  -1.361288   0.843738
O  -3.919222  -0.887876   0.695750
C  -5.198978  -2.800154   1.125265
C  -6.406068  -3.314413   1.415384
H  -4.341276  -3.442796   1.037852
H  -7.208473  -2.652805   1.564299
H  -6.623795  -4.498209   1.664286
H  -5.971756  -0.784080   0.849482
