%chk=/home/boittier/MDCM/nms_sampling/acrolein_geom.xyz.dir/acrolein_361.chk
%nproc=8
%mem=16000MB
#p B2PLYPD3/Def2QZVP 

acrolein

0 1
C  -5.001696  -1.388785   0.916182
O  -3.934322  -0.861468   0.637776
C  -5.188559  -2.831371   1.164976
C  -6.409648  -3.310016   1.387276
H  -4.336242  -3.437284   1.115643
H  -7.292365  -2.643335   1.320381
H  -6.548507  -4.305578   1.582434
H  -5.951695  -0.776828   1.017304

