%chk=/home/boittier/MDCM/nms_sampling/acrolein_geom.xyz.dir/acrolein_717.chk
%nproc=8
%mem=16000MB
#p B2PLYPD3/Def2QZVP 

acrolein

0 1
C  -5.008124  -1.370238   0.875647
O  -3.929436  -0.878363   0.674179
C  -5.193044  -2.805168   1.130552
C  -6.403082  -3.326811   1.418845
H  -4.321259  -3.430640   1.095704
H  -7.276442  -2.654599   1.469294
H  -6.570520  -4.372290   1.554119
H  -5.984241  -0.770989   0.855105

