%chk=/home/boittier/MDCM/nms_sampling/acrolein_geom.xyz.dir/acrolein_1385.chk
%nproc=8
%mem=16000MB
#p B2PLYPD3/Def2QZVP 

acrolein

0 1
C  -5.026846  -1.369095   0.865677
O  -3.940003  -0.877270   0.684798
C  -5.181047  -2.814197   1.116262
C  -6.378038  -3.316863   1.435500
H  -4.330590  -3.445262   1.077208
H  -7.244741  -2.670711   1.444423
H  -6.608993  -4.408597   1.554747
H  -6.004990  -0.737184   0.824422
