%chk=/home/boittier/MDCM/nms_sampling/acrolein_geom.xyz.dir/acrolein_2365.chk
%nproc=8
%mem=16000MB
#p B2PLYPD3/Def2QZVP 

acrolein

0 1
C  -5.003008  -1.379749   0.802418
O  -3.926951  -0.888474   0.731303
C  -5.205531  -2.796923   1.067811
C  -6.405159  -3.317860   1.473052
H  -4.424706  -3.352970   1.031436
H  -7.207757  -2.623263   1.373193
H  -6.599710  -4.420810   1.743173
H  -5.830464  -0.747772   0.904070

