%chk=/home/boittier/MDCM/nms_sampling/acrolein_geom.xyz.dir/acrolein_1804.chk
%nproc=8
%mem=16000MB
#p B2PLYPD3/Def2QZVP 

acrolein

0 1
C  -5.029848  -1.348156   0.836499
O  -3.953530  -0.897587   0.715858
C  -5.192447  -2.794000   1.097163
C  -6.355947  -3.326811   1.467434
H  -4.408707  -3.385783   0.947062
H  -7.234884  -2.655839   1.516978
H  -6.504407  -4.448841   1.525618
H  -5.904536  -0.803001   0.627968

