%chk=/home/boittier/MDCM/nms_sampling/acrolein_geom.xyz.dir/acrolein_888.chk
%nproc=8
%mem=16000MB
#p B2PLYPD3/Def2QZVP 

acrolein

0 1
C  -5.008173  -1.382125   0.869447
O  -3.939377  -0.872164   0.675425
C  -5.190332  -2.804674   1.141633
C  -6.400894  -3.318485   1.417154
H  -4.278846  -3.440372   1.032419
H  -7.228627  -2.661830   1.438449
H  -6.566995  -4.399484   1.569702
H  -5.977384  -0.792446   0.881988

