%chk=/home/boittier/MDCM/nms_sampling/acrolein_geom.xyz.dir/acrolein_2216.chk
%nproc=8
%mem=16000MB
#p B2PLYPD3/Def2QZVP 

acrolein

0 1
C  -5.025172  -1.378907   0.919428
O  -3.944875  -0.875942   0.632096
C  -5.181054  -2.796461   1.184559
C  -6.364732  -3.324247   1.390110
H  -4.427705  -3.421977   1.021871
H  -7.329062  -2.621079   1.228483
H  -6.559814  -4.420281   1.544265
H  -5.972226  -0.819695   1.038068

