%chk=/home/boittier/MDCM/nms_sampling/acrolein_geom.xyz.dir/acrolein_1212.chk
%nproc=8
%mem=16000MB
#p B2PLYPD3/Def2QZVP 

acrolein

0 1
C  -5.017214  -1.379803   0.855574
O  -3.934621  -0.872029   0.689167
C  -5.197143  -2.800900   1.117131
C  -6.385543  -3.327134   1.437956
H  -4.307686  -3.420838   1.098435
H  -7.276030  -2.705497   1.523472
H  -6.519931  -4.348786   1.489393
H  -6.022987  -0.794944   0.794921
