%chk=/home/boittier/MDCM/nms_sampling/acrolein_geom.xyz.dir/acrolein_65.chk
%nproc=8
%mem=16000MB
#p B2PLYPD3/Def2QZVP 

acrolein

0 1
C  -5.016390  -1.375386   0.870723
O  -3.936330  -0.871146   0.679464
C  -5.188303  -2.818877   1.121760
C  -6.393976  -3.317443   1.418508
H  -4.302158  -3.428667   1.072186
H  -7.243609  -2.647411   1.399496
H  -6.564192  -4.370854   1.676394
H  -5.992244  -0.780652   0.914229

