%chk=/home/boittier/MDCM/nms_sampling/acrolein_geom.xyz.dir/acrolein_1404.chk
%nproc=8
%mem=16000MB
#p B2PLYPD3/Def2QZVP 

acrolein

0 1
C  -4.996877  -1.413835   0.899838
O  -3.944380  -0.845517   0.648076
C  -5.172657  -2.844609   1.152035
C  -6.416112  -3.291559   1.380377
H  -4.349869  -3.432207   1.184282
H  -7.319975  -2.633398   1.433246
H  -6.539396  -4.334526   1.640955
H  -5.930490  -0.777592   1.031587
