%chk=/home/boittier/MDCM/nms_sampling/acrolein_geom.xyz.dir/acrolein_1817.chk
%nproc=8
%mem=16000MB
#p B2PLYPD3/Def2QZVP 

acrolein

0 1
C  -5.032000  -1.344367   0.869086
O  -3.915258  -0.892567   0.686476
C  -5.192129  -2.802935   1.103591
C  -6.398245  -3.341943   1.431130
H  -4.301647  -3.399108   1.032626
H  -7.228091  -2.678691   1.255357
H  -6.543743  -4.398499   1.798920
H  -6.076877  -0.669547   0.960930

