%chk=/home/boittier/MDCM/nms_sampling/acrolein_geom.xyz.dir/acrolein_1608.chk
%nproc=8
%mem=16000MB
#p B2PLYPD3/Def2QZVP 

acrolein

0 1
C  -5.001458  -1.407501   0.852581
O  -3.941338  -0.857140   0.688632
C  -5.184040  -2.819974   1.111588
C  -6.403774  -3.293255   1.409529
H  -4.347716  -3.424930   1.140020
H  -7.266244  -2.643297   1.489293
H  -6.591706  -4.441052   1.749885
H  -5.935570  -0.833891   0.968373
