%chk=/home/boittier/MDCM/nms_sampling/acrolein_geom.xyz.dir/acrolein_1593.chk
%nproc=8
%mem=16000MB
#p B2PLYPD3/Def2QZVP 

acrolein

0 1
C  -5.002702  -1.391731   0.855669
O  -3.939692  -0.858238   0.692283
C  -5.180030  -2.833447   1.091154
C  -6.412038  -3.311159   1.438591
H  -4.294747  -3.428672   1.168377
H  -7.388484  -2.663023   1.422982
H  -6.572576  -4.281976   1.653902
H  -5.858047  -0.788844   0.908724

