%chk=/home/boittier/MDCM/nms_sampling/acrolein_geom.xyz.dir/acrolein_2262.chk
%nproc=8
%mem=16000MB
#p B2PLYPD3/Def2QZVP 

acrolein

0 1
C  -5.006753  -1.402606   0.808960
O  -3.947842  -0.831760   0.726311
C  -5.161966  -2.893355   1.112599
C  -6.412042  -3.281771   1.463156
H  -4.272434  -3.461872   0.850147
H  -7.312080  -2.653075   1.500703
H  -6.567365  -4.196864   1.588242
H  -5.988006  -0.762875   0.713278

