%chk=/home/boittier/MDCM/nms_sampling/acrolein_geom.xyz.dir/acrolein_1845.chk
%nproc=8
%mem=16000MB
#p B2PLYPD3/Def2QZVP 

acrolein

0 1
C  -5.026529  -1.345924   0.902358
O  -3.917369  -0.892388   0.647410
C  -5.215512  -2.817317   1.169152
C  -6.392698  -3.323463   1.378308
H  -4.352030  -3.429613   1.051380
H  -7.228011  -2.658933   1.370740
H  -6.483984  -4.365521   1.673100
H  -5.908538  -0.715176   1.012425
