%chk=/home/boittier/MDCM/nms_sampling/acrolein_geom.xyz.dir/acrolein_843.chk
%nproc=8
%mem=16000MB
#p B2PLYPD3/Def2QZVP 

acrolein

0 1
C  -4.999915  -1.392649   0.918654
O  -3.942655  -0.858638   0.636626
C  -5.181750  -2.826659   1.153141
C  -6.404612  -3.309593   1.389489
H  -4.311360  -3.452626   1.202702
H  -7.349884  -2.655306   1.352475
H  -6.573939  -4.319514   1.555901
H  -5.930473  -0.808086   1.018523

