%chk=/home/boittier/MDCM/nms_sampling/acrolein_geom.xyz.dir/acrolein_218.chk
%nproc=8
%mem=16000MB
#p B2PLYPD3/Def2QZVP 

acrolein

0 1
C  -5.012218  -1.385268   0.863924
O  -3.939033  -0.871432   0.678708
C  -5.184508  -2.806643   1.124863
C  -6.403683  -3.314953   1.420515
H  -4.274986  -3.436517   1.106418
H  -7.251287  -2.662196   1.413052
H  -6.583714  -4.421904   1.619585
H  -5.935046  -0.768067   0.949534

