%chk=/home/boittier/MDCM/nms_sampling/acrolein_geom.xyz.dir/acrolein_1635.chk
%nproc=8
%mem=16000MB
#p B2PLYPD3/Def2QZVP 

acrolein

0 1
C  -4.986251  -1.401737   0.861116
O  -3.933543  -0.854491   0.683273
C  -5.206551  -2.843003   1.119653
C  -6.417126  -3.288034   1.411432
H  -4.315268  -3.445726   1.109086
H  -7.269316  -2.665808   1.461822
H  -6.577736  -4.306435   1.704508
H  -5.870616  -0.836062   0.942050

