%chk=/home/boittier/MDCM/nms_sampling/acrolein_geom.xyz.dir/acrolein_2169.chk
%nproc=8
%mem=16000MB
#p B2PLYPD3/Def2QZVP 

acrolein

0 1
C  -5.024866  -1.361967   0.866705
O  -3.959749  -0.896319   0.668787
C  -5.185054  -2.782570   1.169467
C  -6.366232  -3.337567   1.381599
H  -4.368049  -3.351168   1.040898
H  -7.259376  -2.721151   1.604873
H  -6.494544  -4.391253   1.590313
H  -5.866228  -0.713457   0.904245
