%chk=/home/boittier/MDCM/nms_sampling/acrolein_geom.xyz.dir/acrolein_1348.chk
%nproc=8
%mem=16000MB
#p B2PLYPD3/Def2QZVP 

acrolein

0 1
C  -5.017413  -1.356170   0.849382
O  -3.923117  -0.887700   0.686816
C  -5.189754  -2.808946   1.135790
C  -6.395600  -3.320288   1.427254
H  -4.374897  -3.425298   1.047033
H  -7.264174  -2.669268   1.510728
H  -6.625685  -4.435892   1.511179
H  -5.995935  -0.736193   0.855960
