%chk=/home/boittier/MDCM/nms_sampling/acrolein_geom.xyz.dir/acrolein_2598.chk
%nproc=8
%mem=16000MB
#p B2PLYPD3/Def2QZVP 

acrolein

0 1
C  -5.020374  -1.335589   0.845615
O  -3.917084  -0.902785   0.699721
C  -5.221292  -2.799167   1.116055
C  -6.377542  -3.343020   1.446645
H  -4.321675  -3.388640   1.026917
H  -7.233174  -2.716894   1.560096
H  -6.577812  -4.346334   1.475859
H  -6.032842  -0.678809   0.711210

