%chk=/home/boittier/MDCM/nms_sampling/acrolein_geom.xyz.dir/acrolein_2016.chk
%nproc=8
%mem=16000MB
#p B2PLYPD3/Def2QZVP 

acrolein

0 1
C  -5.007637  -1.393762   0.868604
O  -3.953795  -0.874777   0.694635
C  -5.179532  -2.794568   1.095888
C  -6.374361  -3.304263   1.456716
H  -4.401792  -3.441110   0.999326
H  -7.198335  -2.601847   1.329387
H  -6.665771  -4.529502   1.626169
H  -5.986140  -0.806434   0.762194
