%chk=/home/boittier/MDCM/nms_sampling/acrolein_geom.xyz.dir/acrolein_533.chk
%nproc=8
%mem=16000MB
#p B2PLYPD3/Def2QZVP 

acrolein

0 1
C  -5.001704  -1.380330   0.918791
O  -3.929228  -0.877908   0.643119
C  -5.202579  -2.803575   1.149716
C  -6.404926  -3.315837   1.389076
H  -4.326382  -3.438620   1.137919
H  -7.273316  -2.660046   1.366697
H  -6.588069  -4.405770   1.621088
H  -5.914099  -0.762769   0.953008
