%chk=/home/boittier/MDCM/nms_sampling/acrolein_geom.xyz.dir/acrolein_170.chk
%nproc=8
%mem=16000MB
#p B2PLYPD3/Def2QZVP 

acrolein

0 1
C  -5.012860  -1.364305   0.912144
O  -3.929678  -0.880467   0.638674
C  -5.187153  -2.817079   1.174911
C  -6.401022  -3.318515   1.387534
H  -4.352622  -3.417586   1.085550
H  -7.265065  -2.660628   1.368964
H  -6.581768  -4.393589   1.519495
H  -5.979344  -0.739976   0.975102

