%chk=/home/boittier/MDCM/nms_sampling/acrolein_geom.xyz.dir/acrolein_2066.chk
%nproc=8
%mem=16000MB
#p B2PLYPD3/Def2QZVP 

acrolein

0 1
C  -5.045596  -1.339333   0.975507
O  -3.953498  -0.896088   0.585896
C  -5.196977  -2.810473   1.220274
C  -6.341239  -3.329373   1.337692
H  -4.317888  -3.482979   1.245634
H  -7.099596  -2.689025   1.462733
H  -6.567447  -4.336947   1.355476
H  -5.995789  -0.688580   0.999990
