%chk=/home/boittier/MDCM/nms_sampling/acrolein_geom.xyz.dir/acrolein_729.chk
%nproc=8
%mem=16000MB
#p B2PLYPD3/Def2QZVP 

acrolein

0 1
C  -5.002576  -1.387952   0.887291
O  -3.931500  -0.859180   0.663643
C  -5.191974  -2.832478   1.135551
C  -6.410140  -3.310592   1.401749
H  -4.275855  -3.473684   1.120430
H  -7.336850  -2.657003   1.399772
H  -6.566647  -4.301333   1.659554
H  -5.949301  -0.771077   0.965154

