%chk=/home/boittier/MDCM/nms_sampling/acrolein_geom.xyz.dir/acrolein_1033.chk
%nproc=8
%mem=16000MB
#p B2PLYPD3/Def2QZVP 

acrolein

0 1
C  -5.007557  -1.399066   0.874143
O  -3.947390  -0.853693   0.669893
C  -5.181123  -2.833548   1.141669
C  -6.406458  -3.310912   1.414825
H  -4.276316  -3.437295   1.110593
H  -7.334483  -2.648282   1.502504
H  -6.488868  -4.276517   1.489190
H  -5.883407  -0.777770   0.868838
