%chk=/home/boittier/MDCM/nms_sampling/acrolein_geom.xyz.dir/acrolein_1874.chk
%nproc=8
%mem=16000MB
#p B2PLYPD3/Def2QZVP 

acrolein

0 1
C  -4.979991  -1.417943   0.909659
O  -3.912334  -0.851552   0.628403
C  -5.234627  -2.818431   1.209122
C  -6.434805  -3.300324   1.351189
H  -4.241804  -3.433495   1.094730
H  -7.309759  -2.717880   1.510599
H  -6.543471  -4.271430   1.517452
H  -5.833766  -0.864717   1.031886

