%chk=/home/boittier/MDCM/nms_sampling/acrolein_geom.xyz.dir/acrolein_636.chk
%nproc=8
%mem=16000MB
#p B2PLYPD3/Def2QZVP 

acrolein

0 1
C  -5.005616  -1.390111   0.912601
O  -3.933674  -0.870250   0.639132
C  -5.197768  -2.799534   1.175935
C  -6.403938  -3.318048   1.380450
H  -4.300647  -3.442516   1.082732
H  -7.235596  -2.686625   1.398782
H  -6.570722  -4.368710   1.556150
H  -5.947700  -0.803932   0.969779

