%chk=/home/boittier/MDCM/nms_sampling/acrolein_geom.xyz.dir/acrolein_577.chk
%nproc=8
%mem=16000MB
#p B2PLYPD3/Def2QZVP 

acrolein

0 1
C  -5.003128  -1.383832   0.874593
O  -3.932372  -0.876496   0.675159
C  -5.202081  -2.807072   1.134732
C  -6.404640  -3.312184   1.408725
H  -4.339101  -3.414942   1.070370
H  -7.196868  -2.678474   1.488632
H  -6.576490  -4.383948   1.619781
H  -5.923698  -0.767482   0.864149

