%chk=/home/boittier/MDCM/nms_sampling/acrolein_geom.xyz.dir/acrolein_1227.chk
%nproc=8
%mem=16000MB
#p B2PLYPD3/Def2QZVP 

acrolein

0 1
C  -5.018077  -1.376889   0.873009
O  -3.942796  -0.875094   0.675315
C  -5.192883  -2.801769   1.128490
C  -6.381848  -3.324401   1.407863
H  -4.349127  -3.443841   1.145396
H  -7.230299  -2.657731   1.563884
H  -6.503058  -4.360572   1.575238
H  -5.986117  -0.797487   0.848738
