%chk=/home/boittier/MDCM/nms_sampling/acrolein_geom.xyz.dir/acrolein_2274.chk
%nproc=8
%mem=16000MB
#p B2PLYPD3/Def2QZVP 

acrolein

0 1
C  -5.008775  -1.385565   0.857267
O  -3.918340  -0.888658   0.678226
C  -5.205545  -2.766899   1.143023
C  -6.402771  -3.331699   1.426227
H  -4.353056  -3.352044   1.036035
H  -7.253076  -2.682893   1.402712
H  -6.581259  -4.519242   1.524180
H  -5.989831  -0.726779   0.934742

