%chk=/home/boittier/MDCM/nms_sampling/acrolein_geom.xyz.dir/acrolein_1369.chk
%nproc=8
%mem=16000MB
#p B2PLYPD3/Def2QZVP 

acrolein

0 1
C  -4.997188  -1.394519   0.890602
O  -3.934543  -0.852599   0.647291
C  -5.177083  -2.834217   1.181521
C  -6.427996  -3.301241   1.381936
H  -4.240630  -3.491019   1.095148
H  -7.359502  -2.650781   1.497816
H  -6.588809  -4.361118   1.484831
H  -5.925604  -0.822712   0.969957

