%chk=/home/boittier/MDCM/nms_sampling/acrolein_geom.xyz.dir/acrolein_34.chk
%nproc=8
%mem=16000MB
#p B2PLYPD3/Def2QZVP 

acrolein

0 1
C  -5.002255  -1.390489   0.869245
O  -3.935750  -0.861333   0.679580
C  -5.190692  -2.827113   1.132603
C  -6.409385  -3.307551   1.421319
H  -4.317576  -3.454995   1.029489
H  -7.334388  -2.652919   1.437595
H  -6.543385  -4.324511   1.597069
H  -5.889780  -0.800326   0.854592

