%chk=/home/boittier/MDCM/nms_sampling/acrolein_geom.xyz.dir/acrolein_232.chk
%nproc=8
%mem=16000MB
#p B2PLYPD3/Def2QZVP 

acrolein

0 1
C  -5.013104  -1.384290   0.917861
O  -3.941319  -0.872357   0.643262
C  -5.191646  -2.804567   1.149656
C  -6.391521  -3.322466   1.386861
H  -4.315733  -3.441134   1.147957
H  -7.252127  -2.670589   1.382919
H  -6.560367  -4.336493   1.625239
H  -5.928567  -0.771875   0.956493
