%chk=/home/boittier/MDCM/nms_sampling/acrolein_geom.xyz.dir/acrolein_164.chk
%nproc=8
%mem=16000MB
#p B2PLYPD3/Def2QZVP 

acrolein

0 1
C  -5.012125  -1.366655   0.905119
O  -3.928566  -0.878100   0.645090
C  -5.198010  -2.819562   1.157145
C  -6.400033  -3.315385   1.382998
H  -4.344090  -3.427641   1.149174
H  -7.233399  -2.680685   1.390489
H  -6.567303  -4.345957   1.625634
H  -5.946347  -0.780204   1.023137

