%chk=/home/boittier/MDCM/nms_sampling/acrolein_geom.xyz.dir/acrolein_181.chk
%nproc=8
%mem=16000MB
#p B2PLYPD3/Def2QZVP 

acrolein

0 1
C  -5.007459  -1.377244   0.874992
O  -3.930270  -0.877585   0.676319
C  -5.200092  -2.803321   1.134300
C  -6.399644  -3.321541   1.407394
H  -4.329275  -3.424995   1.045647
H  -7.282770  -2.651722   1.467103
H  -6.577479  -4.380119   1.662215
H  -5.916103  -0.789185   0.869333

