%chk=/home/boittier/MDCM/nms_sampling/acrolein_geom.xyz.dir/acrolein_1727.chk
%nproc=8
%mem=16000MB
#p B2PLYPD3/Def2QZVP 

acrolein

0 1
C  -4.991955  -1.381809   0.867944
O  -3.929778  -0.856571   0.684634
C  -5.186814  -2.855683   1.133401
C  -6.421998  -3.294972   1.414809
H  -4.289199  -3.453024   0.997316
H  -7.375593  -2.648579   1.524760
H  -6.606341  -4.323917   1.624761
H  -5.931978  -0.800283   0.776238

