%chk=/home/boittier/MDCM/nms_sampling/acrolein_geom.xyz.dir/acrolein_1827.chk
%nproc=8
%mem=16000MB
#p B2PLYPD3/Def2QZVP 

acrolein

0 1
C  -4.990657  -1.408691   0.899326
O  -3.954770  -0.846257   0.637568
C  -5.185527  -2.866082   1.189692
C  -6.411678  -3.273602   1.362751
H  -4.226188  -3.456666   1.124635
H  -7.323196  -2.611572   1.475041
H  -6.643275  -4.344785   1.563701
H  -5.759764  -0.796601   1.061346

