%chk=/home/boittier/MDCM/nms_sampling/acrolein_geom.xyz.dir/acrolein_2025.chk
%nproc=8
%mem=16000MB
#p B2PLYPD3/Def2QZVP 

acrolein

0 1
C  -5.002406  -1.367822   0.857996
O  -3.922655  -0.883696   0.688388
C  -5.183555  -2.790390   1.128498
C  -6.413786  -3.331692   1.413345
H  -4.371537  -3.448850   1.089215
H  -7.381758  -2.731710   1.672311
H  -6.576492  -4.397650   1.540485
H  -6.000875  -0.715089   0.739745
