%chk=/home/boittier/MDCM/nms_sampling/acrolein_geom.xyz.dir/acrolein_1015.chk
%nproc=8
%mem=16000MB
#p B2PLYPD3/Def2QZVP 

acrolein

0 1
C  -5.008760  -1.401347   0.850841
O  -3.940054  -0.866018   0.694898
C  -5.190947  -2.794086   1.125883
C  -6.393944  -3.322590   1.439388
H  -4.291833  -3.387326   0.966488
H  -7.231628  -2.674635   1.463006
H  -6.597723  -4.379984   1.557930
H  -5.987620  -0.811412   0.779041
