%chk=/home/boittier/MDCM/nms_sampling/acrolein_geom.xyz.dir/acrolein_2604.chk
%nproc=8
%mem=16000MB
#p B2PLYPD3/Def2QZVP 

acrolein

0 1
C  -5.009684  -1.378839   0.841859
O  -3.951291  -0.878881   0.716243
C  -5.201580  -2.802519   1.073160
C  -6.377322  -3.313018   1.465117
H  -4.385549  -3.473628   0.991996
H  -7.268375  -2.647539   1.361687
H  -6.484041  -4.381998   1.739514
H  -5.850602  -0.794065   0.769139

