%chk=/home/boittier/MDCM/nms_sampling/acrolein_geom.xyz.dir/acrolein_1435.chk
%nproc=8
%mem=16000MB
#p B2PLYPD3/Def2QZVP 

acrolein

0 1
C  -4.999413  -1.402009   0.855912
O  -3.945307  -0.857152   0.676469
C  -5.190844  -2.831929   1.149243
C  -6.410415  -3.298855   1.415558
H  -4.217451  -3.433372   1.070660
H  -7.295387  -2.663825   1.500076
H  -6.614537  -4.343566   1.496529
H  -5.826173  -0.788806   0.918837
