%chk=/home/boittier/MDCM/nms_sampling/acrolein_geom.xyz.dir/acrolein_1361.chk
%nproc=8
%mem=16000MB
#p B2PLYPD3/Def2QZVP 

acrolein

0 1
C  -5.018144  -1.384009   0.917406
O  -3.941922  -0.857005   0.637011
C  -5.182216  -2.842786   1.162563
C  -6.389323  -3.306674   1.390309
H  -4.285526  -3.454334   1.104642
H  -7.265142  -2.653339   1.249110
H  -6.556214  -4.306572   1.616881
H  -6.016273  -0.781730   1.059091
