%chk=/home/boittier/MDCM/nms_sampling/acrolein_geom.xyz.dir/acrolein_2213.chk
%nproc=8
%mem=16000MB
#p B2PLYPD3/Def2QZVP 

acrolein

0 1
C  -4.994173  -1.412938   0.960703
O  -3.958689  -0.848333   0.598759
C  -5.168804  -2.833196   1.158761
C  -6.398180  -3.282668   1.373118
H  -4.345490  -3.472748   1.413483
H  -7.291920  -2.597206   1.216720
H  -6.623842  -4.446622   1.497203
H  -5.935998  -0.866238   1.212083

