%chk=/home/boittier/MDCM/nms_sampling/acrolein_geom.xyz.dir/acrolein_493.chk
%nproc=8
%mem=16000MB
#p B2PLYPD3/Def2QZVP 

acrolein

0 1
C  -4.999479  -1.380717   0.901995
O  -3.932597  -0.864721   0.652955
C  -5.196304  -2.836431   1.152429
C  -6.409051  -3.304917   1.389193
H  -4.320122  -3.451358   1.093078
H  -7.279384  -2.663710   1.410272
H  -6.564927  -4.306696   1.641671
H  -5.936247  -0.788626   0.945357

