%chk=/home/boittier/MDCM/nms_sampling/acrolein_geom.xyz.dir/acrolein_662.chk
%nproc=8
%mem=16000MB
#p B2PLYPD3/Def2QZVP 

acrolein

0 1
C  -4.996307  -1.393344   0.896319
O  -3.932020  -0.861074   0.647095
C  -5.191117  -2.826048   1.168759
C  -6.421520  -3.303473   1.390583
H  -4.306687  -3.460939   1.117653
H  -7.321076  -2.651055   1.434730
H  -6.568320  -4.348228   1.503729
H  -5.872381  -0.805835   0.977627

