%chk=/home/boittier/MDCM/nms_sampling/acrolein_geom.xyz.dir/acrolein_2159.chk
%nproc=8
%mem=16000MB
#p B2PLYPD3/Def2QZVP 

acrolein

0 1
C  -5.008679  -1.411414   0.874845
O  -3.953376  -0.839606   0.689068
C  -5.175587  -2.858496   1.077553
C  -6.414015  -3.277596   1.416228
H  -4.154632  -3.502383   1.223155
H  -7.310994  -2.580178   1.500910
H  -6.609732  -4.387702   1.809507
H  -5.775377  -0.858469   0.865149

