%chk=/home/boittier/MDCM/nms_sampling/acrolein_geom.xyz.dir/acrolein_1287.chk
%nproc=8
%mem=16000MB
#p B2PLYPD3/Def2QZVP 

acrolein

0 1
C  -5.022680  -1.362657   0.925263
O  -3.939148  -0.883193   0.621802
C  -5.182074  -2.806788   1.182076
C  -6.395231  -3.324405   1.357252
H  -4.292053  -3.402396   1.221459
H  -7.265205  -2.672702   1.405862
H  -6.551806  -4.421712   1.578244
H  -5.930969  -0.753346   1.110834

