%chk=/home/boittier/MDCM/nms_sampling/acrolein_geom.xyz.dir/acrolein_1947.chk
%nproc=8
%mem=16000MB
#p B2PLYPD3/Def2QZVP 

acrolein

0 1
C  -5.012234  -1.376406   0.886114
O  -3.940787  -0.894573   0.653935
C  -5.185228  -2.746519   1.172747
C  -6.392007  -3.344823   1.374090
H  -4.290297  -3.387341   1.118373
H  -7.199032  -2.649134   1.592459
H  -6.686222  -4.535400   1.546356
H  -5.960547  -0.823491   0.930850
