%chk=/home/boittier/MDCM/nms_sampling/acrolein_geom.xyz.dir/acrolein_2148.chk
%nproc=8
%mem=16000MB
#p B2PLYPD3/Def2QZVP 

acrolein

0 1
C  -4.995961  -1.427887   0.922375
O  -3.957940  -0.837380   0.630449
C  -5.182414  -2.832155   1.158172
C  -6.407516  -3.311456   1.356168
H  -4.236229  -3.419560   1.256172
H  -7.360480  -2.704451   1.397389
H  -6.472459  -4.167241   1.725737
H  -5.871793  -0.802461   1.129778

