%chk=/home/boittier/MDCM/nms_sampling/acrolein_geom.xyz.dir/acrolein_1729.chk
%nproc=8
%mem=16000MB
#p B2PLYPD3/Def2QZVP 

acrolein

0 1
C  -4.995147  -1.400683   0.931143
O  -3.950752  -0.849448   0.632438
C  -5.173232  -2.846370   1.154131
C  -6.403512  -3.295283   1.385159
H  -4.342375  -3.437645   1.171858
H  -7.347793  -2.643173   1.314126
H  -6.579149  -4.305947   1.605897
H  -5.933069  -0.828274   1.001479
