%chk=/home/boittier/MDCM/nms_sampling/acrolein_geom.xyz.dir/acrolein_647.chk
%nproc=8
%mem=16000MB
#p B2PLYPD3/Def2QZVP 

acrolein

0 1
C  -4.995908  -1.390392   0.897636
O  -3.933464  -0.858287   0.647349
C  -5.193144  -2.837301   1.157540
C  -6.411172  -3.302783   1.391697
H  -4.324272  -3.447154   1.155854
H  -7.315532  -2.668907   1.390415
H  -6.549072  -4.306697   1.560330
H  -5.958617  -0.792556   1.025598

