%chk=/home/boittier/MDCM/nms_sampling/acrolein_geom.xyz.dir/acrolein_1262.chk
%nproc=8
%mem=16000MB
#p B2PLYPD3/Def2QZVP 

acrolein

0 1
C  -5.007887  -1.381432   0.905108
O  -3.945501  -0.882623   0.637834
C  -5.196699  -2.791239   1.165654
C  -6.387910  -3.313347   1.382086
H  -4.356418  -3.403348   1.194757
H  -7.160366  -2.709671   1.379480
H  -6.586214  -4.431670   1.550522
H  -5.924009  -0.804391   1.082049
