%chk=/home/boittier/MDCM/nms_sampling/acrolein_geom.xyz.dir/acrolein_373.chk
%nproc=8
%mem=16000MB
#p B2PLYPD3/Def2QZVP 

acrolein

0 1
C  -4.999600  -1.385088   0.909299
O  -3.932348  -0.865863   0.640189
C  -5.192286  -2.831599   1.158436
C  -6.411643  -3.301925   1.378931
H  -4.315409  -3.458311   1.189515
H  -7.275784  -2.632505   1.396274
H  -6.598515  -4.374751   1.610576
H  -5.927400  -0.763761   1.048119

