%chk=/home/boittier/MDCM/nms_sampling/acrolein_geom.xyz.dir/acrolein_333.chk
%nproc=8
%mem=16000MB
#p B2PLYPD3/Def2QZVP 

acrolein

0 1
C  -5.008102  -1.379259   0.901866
O  -3.934938  -0.867556   0.642693
C  -5.188188  -2.827411   1.172897
C  -6.409776  -3.312933   1.390428
H  -4.280099  -3.431684   1.117570
H  -7.300918  -2.646895   1.418421
H  -6.570350  -4.338822   1.477239
H  -5.894572  -0.784822   0.977705
