%chk=/home/boittier/MDCM/nms_sampling/acrolein_geom.xyz.dir/acrolein_1535.chk
%nproc=8
%mem=16000MB
#p B2PLYPD3/Def2QZVP 

acrolein

0 1
C  -4.997608  -1.415052   0.907511
O  -3.945786  -0.853312   0.639684
C  -5.184575  -2.819128   1.173154
C  -6.417813  -3.298634   1.373945
H  -4.270360  -3.470359   1.152594
H  -7.312302  -2.669809   1.479900
H  -6.573556  -4.347952   1.542040
H  -5.803025  -0.794532   0.983591

