%chk=/home/boittier/MDCM/nms_sampling/acrolein_geom.xyz.dir/acrolein_935.chk
%nproc=8
%mem=16000MB
#p B2PLYPD3/Def2QZVP 

acrolein

0 1
C  -5.017123  -1.358341   0.930422
O  -3.933853  -0.891911   0.635492
C  -5.203452  -2.797350   1.163467
C  -6.379990  -3.331097   1.381904
H  -4.352897  -3.410271   1.118471
H  -7.282790  -2.687039   1.413560
H  -6.574436  -4.370723   1.559874
H  -5.910980  -0.728144   0.892009
