%chk=/home/boittier/MDCM/nms_sampling/acrolein_geom.xyz.dir/acrolein_283.chk
%nproc=8
%mem=16000MB
#p B2PLYPD3/Def2QZVP 

acrolein

0 1
C  -5.006940  -1.378627   0.918725
O  -3.928218  -0.877541   0.635981
C  -5.192359  -2.802410   1.168875
C  -6.409294  -3.320497   1.377842
H  -4.318687  -3.410688   1.160725
H  -7.275223  -2.671171   1.458457
H  -6.584177  -4.411428   1.523760
H  -5.944009  -0.759975   0.947221

