%chk=/home/boittier/MDCM/nms_sampling/acrolein_geom.xyz.dir/acrolein_2117.chk
%nproc=8
%mem=16000MB
#p B2PLYPD3/Def2QZVP 

acrolein

0 1
C  -5.010260  -1.353855   0.832633
O  -3.905752  -0.902337   0.707035
C  -5.227408  -2.769011   1.095800
C  -6.426317  -3.341246   1.424147
H  -4.261988  -3.373141   1.099695
H  -7.106132  -2.697242   1.522275
H  -6.539732  -4.437075   1.779611
H  -5.909431  -0.800298   0.909610
