%chk=/home/boittier/MDCM/nms_sampling/acrolein_geom.xyz.dir/acrolein_959.chk
%nproc=8
%mem=16000MB
#p B2PLYPD3/Def2QZVP 

acrolein

0 1
C  -5.000575  -1.401174   0.863696
O  -3.935315  -0.851594   0.685608
C  -5.183216  -2.838312   1.125739
C  -6.406984  -3.300640   1.414197
H  -4.359711  -3.476153   1.083628
H  -7.403812  -2.634777   1.599659
H  -6.532422  -4.322750   1.583920
H  -5.937608  -0.767609   0.777182

