%chk=/home/boittier/MDCM/nms_sampling/acrolein_geom.xyz.dir/acrolein_818.chk
%nproc=8
%mem=16000MB
#p B2PLYPD3/Def2QZVP 

acrolein

0 1
C  -4.994897  -1.393239   0.886856
O  -3.934340  -0.865735   0.669461
C  -5.189974  -2.812305   1.135148
C  -6.414776  -3.309122   1.406633
H  -4.315481  -3.445691   1.075499
H  -7.301681  -2.668069   1.474857
H  -6.603213  -4.377284   1.616305
H  -5.919483  -0.800309   0.842090

