%chk=/home/boittier/MDCM/nms_sampling/acrolein_geom.xyz.dir/acrolein_455.chk
%nproc=8
%mem=16000MB
#p B2PLYPD3/Def2QZVP 

acrolein

0 1
C  -4.999048  -1.385164   0.914323
O  -3.938327  -0.860703   0.645357
C  -5.181072  -2.839277   1.154011
C  -6.413069  -3.302390   1.387137
H  -4.315416  -3.444205   1.122434
H  -7.322157  -2.652353   1.408687
H  -6.576230  -4.336604   1.606075
H  -5.933904  -0.785370   0.930698

