%chk=/home/boittier/MDCM/nms_sampling/acrolein_geom.xyz.dir/acrolein_617.chk
%nproc=8
%mem=16000MB
#p B2PLYPD3/Def2QZVP 

acrolein

0 1
C  -5.011720  -1.378058   0.890445
O  -3.939940  -0.874427   0.664545
C  -5.187397  -2.802567   1.142345
C  -6.391618  -3.325902   1.400778
H  -4.326740  -3.431400   1.086905
H  -7.260327  -2.657608   1.488154
H  -6.564755  -4.365174   1.595888
H  -5.990256  -0.785340   0.854571
