%chk=/home/boittier/MDCM/nms_sampling/acrolein_geom.xyz.dir/acrolein_1117.chk
%nproc=8
%mem=16000MB
#p B2PLYPD3/Def2QZVP 

acrolein

0 1
C  -4.993195  -1.400879   0.905179
O  -3.938701  -0.855179   0.631910
C  -5.188056  -2.828851   1.189964
C  -6.405892  -3.306862   1.384138
H  -4.316028  -3.470822   1.147823
H  -7.408050  -2.636836   1.419122
H  -6.580342  -4.321953   1.389890
H  -5.922750  -0.771542   1.031656
