%chk=/home/boittier/MDCM/nms_sampling/acrolein_geom.xyz.dir/acrolein_2428.chk
%nproc=8
%mem=16000MB
#p B2PLYPD3/Def2QZVP 

acrolein

0 1
C  -5.008515  -1.407401   0.874104
O  -3.959476  -0.835066   0.697018
C  -5.148168  -2.863423   1.070794
C  -6.403647  -3.291348   1.452420
H  -4.356722  -3.497444   1.078232
H  -7.390176  -2.568627   1.308907
H  -6.537541  -4.270210   1.766922
H  -5.908861  -0.858394   0.803630
