%chk=/home/boittier/MDCM/nms_sampling/acrolein_geom.xyz.dir/acrolein_412.chk
%nproc=8
%mem=16000MB
#p B2PLYPD3/Def2QZVP 

acrolein

0 1
C  -5.006574  -1.378019   0.909209
O  -3.932571  -0.866060   0.641751
C  -5.192031  -2.832250   1.175601
C  -6.409183  -3.306691   1.385993
H  -4.292077  -3.467817   1.071435
H  -7.320605  -2.656225   1.410246
H  -6.565749  -4.337713   1.521236
H  -5.890554  -0.793141   0.942518

