%chk=/home/boittier/MDCM/nms_sampling/acrolein_geom.xyz.dir/acrolein_1730.chk
%nproc=8
%mem=16000MB
#p B2PLYPD3/Def2QZVP 

acrolein

0 1
C  -5.002828  -1.392038   0.876848
O  -3.949803  -0.853910   0.678316
C  -5.171344  -2.847076   1.101596
C  -6.405911  -3.297354   1.415485
H  -4.300789  -3.453284   1.202609
H  -7.331250  -2.677033   1.463606
H  -6.543975  -4.319739   1.691380
H  -5.946133  -0.761773   0.911428

