%chk=/home/boittier/MDCM/nms_sampling/acrolein_geom.xyz.dir/acrolein_569.chk
%nproc=8
%mem=16000MB
#p B2PLYPD3/Def2QZVP 

acrolein

0 1
C  -4.992530  -1.396781   0.908540
O  -3.932807  -0.859695   0.639049
C  -5.191880  -2.828483   1.166016
C  -6.418791  -3.302298   1.376171
H  -4.319282  -3.459528   1.172736
H  -7.278962  -2.654874   1.417344
H  -6.585672  -4.336891   1.586547
H  -5.936759  -0.775679   1.037929
