%chk=/home/boittier/MDCM/nms_sampling/acrolein_geom.xyz.dir/acrolein_684.chk
%nproc=8
%mem=16000MB
#p B2PLYPD3/Def2QZVP 

acrolein

0 1
C  -5.003857  -1.379557   0.901493
O  -3.931167  -0.876405   0.648460
C  -5.198539  -2.803302   1.156945
C  -6.402331  -3.319326   1.396241
H  -4.301650  -3.416749   1.148228
H  -7.267913  -2.652790   1.450249
H  -6.594294  -4.414325   1.494367
H  -5.957611  -0.782076   0.929564

