%chk=/home/boittier/MDCM/nms_sampling/acrolein_geom.xyz.dir/acrolein_722.chk
%nproc=8
%mem=16000MB
#p B2PLYPD3/Def2QZVP 

acrolein

0 1
C  -4.999850  -1.386004   0.904342
O  -3.932878  -0.863758   0.641006
C  -5.193213  -2.831419   1.175162
C  -6.414971  -3.310846   1.379942
H  -4.291772  -3.437372   1.126161
H  -7.302817  -2.648452   1.448085
H  -6.559214  -4.305528   1.521838
H  -5.906197  -0.767602   0.987354

