%chk=/home/boittier/MDCM/nms_sampling/acrolein_geom.xyz.dir/acrolein_2377.chk
%nproc=8
%mem=16000MB
#p B2PLYPD3/Def2QZVP 

acrolein

0 1
C  -5.027901  -1.370304   0.874076
O  -3.958495  -0.860648   0.673464
C  -5.166853  -2.850420   1.158786
C  -6.394223  -3.304537   1.426959
H  -4.267737  -3.510246   0.905657
H  -7.275251  -2.616098   1.374165
H  -6.471049  -4.294971   1.497550
H  -5.847563  -0.802817   0.817258
