%chk=/home/boittier/MDCM/nms_sampling/acrolein_geom.xyz.dir/acrolein_354.chk
%nproc=8
%mem=16000MB
#p B2PLYPD3/Def2QZVP 

acrolein

0 1
C  -5.002766  -1.386224   0.881248
O  -3.932207  -0.866769   0.669762
C  -5.197874  -2.827541   1.120844
C  -6.408234  -3.307398   1.415850
H  -4.307824  -3.430219   1.162129
H  -7.254929  -2.641259   1.413843
H  -6.570151  -4.348147   1.612208
H  -5.921169  -0.768487   0.935423

