%chk=/home/boittier/MDCM/nms_sampling/acrolein_geom.xyz.dir/acrolein_1533.chk
%nproc=8
%mem=16000MB
#p B2PLYPD3/Def2QZVP 

acrolein

0 1
C  -5.009480  -1.398580   0.904997
O  -3.939788  -0.869414   0.632419
C  -5.198948  -2.804209   1.190857
C  -6.385176  -3.307845   1.380107
H  -4.353127  -3.437040   1.138739
H  -7.177791  -2.663160   1.425171
H  -6.612269  -4.397431   1.420767
H  -5.963178  -0.767855   1.035713

