%chk=/home/boittier/MDCM/nms_sampling/acrolein_geom.xyz.dir/acrolein_2520.chk
%nproc=8
%mem=16000MB
#p B2PLYPD3/Def2QZVP 

acrolein

0 1
C  -5.010225  -1.397821   0.916623
O  -3.950783  -0.880825   0.639880
C  -5.193849  -2.762224   1.118633
C  -6.375969  -3.338551   1.408500
H  -4.354741  -3.415545   1.355949
H  -7.107180  -2.665654   1.304953
H  -6.553553  -4.411106   1.540437
H  -6.069697  -0.729087   1.072955
