%chk=/home/boittier/MDCM/nms_sampling/acrolein_geom.xyz.dir/acrolein_285.chk
%nproc=8
%mem=16000MB
#p B2PLYPD3/Def2QZVP 

acrolein

0 1
C  -5.000721  -1.403459   0.902848
O  -3.939261  -0.854491   0.648351
C  -5.190820  -2.830948   1.158319
C  -6.407499  -3.299887   1.388015
H  -4.294503  -3.435423   1.146551
H  -7.255171  -2.642165   1.480557
H  -6.579525  -4.340592   1.535421
H  -5.932105  -0.815616   0.925798
