%chk=/home/boittier/MDCM/nms_sampling/butadiene_geom.xyz.dir/butadiene_1281.chk
%nproc=8
%mem=16000MB
#p B2PLYPD3/Def2QZVP 

butadiene

0 1
C  -3.846085   0.210290  -0.010541
C  -2.704915  -0.466880   0.077659
C  -1.378411   0.070001   0.029623
C  -0.270379  -0.660004  -0.005190
H  -4.763960  -0.289891  -0.031233
H  -3.901610   1.279482  -0.064772
H  -2.842116  -1.551790   0.139699
H  -1.341592   1.104893   0.136701
H  -0.314588  -1.748198   0.055180
H   0.732797  -0.238843   0.038541

