%chk=/home/boittier/MDCM/nms_sampling/butadiene_geom.xyz.dir/butadiene_1824.chk
%nproc=8
%mem=16000MB
#p B2PLYPD3/Def2QZVP 

butadiene

0 1
C  -3.811089   0.245289  -0.010253
C  -2.723647  -0.531058   0.061656
C  -1.397394   0.052012   0.064202
C  -0.267034  -0.636298   0.003467
H  -4.788678  -0.181894  -0.072534
H  -3.800283   1.328187  -0.075919
H  -2.885847  -1.600271   0.187645
H  -1.396278   1.131001   0.041642
H  -0.243599  -1.747161  -0.005291
H   0.690475  -0.126891  -0.149065

