%chk=/home/boittier/MDCM/nms_sampling/butadiene_geom.xyz.dir/butadiene_428.chk
%nproc=8
%mem=16000MB
#p B2PLYPD3/Def2QZVP 

butadiene

0 1
C  -3.832595   0.234424  -0.005376
C  -2.724885  -0.523906   0.054189
C  -1.384297   0.069546   0.034804
C  -0.258724  -0.649077   0.017870
H  -4.833896  -0.196237   0.032523
H  -3.767757   1.320776   0.010591
H  -2.812271  -1.604785   0.065227
H  -1.386647   1.166146   0.010620
H  -0.304483  -1.723336   0.080564
H   0.695212  -0.161611  -0.079316

