%chk=/home/boittier/MDCM/nms_sampling/butadiene_geom.xyz.dir/butadiene_2470.chk
%nproc=8
%mem=16000MB
#p B2PLYPD3/Def2QZVP 

butadiene

0 1
C  -3.805344   0.272247   0.068670
C  -2.710913  -0.541163  -0.019078
C  -1.397216   0.001639  -0.045911
C  -0.284620  -0.602970   0.066525
H  -4.788718  -0.168362  -0.077471
H  -3.714660   1.266057   0.328769
H  -2.835814  -1.640500  -0.036764
H  -1.383127   1.088949  -0.236581
H  -0.373599  -1.664570   0.346919
H   0.665835  -0.108533   0.106677
