%chk=/home/boittier/MDCM/nms_sampling/butadiene_geom.xyz.dir/butadiene_442.chk
%nproc=8
%mem=16000MB
#p B2PLYPD3/Def2QZVP 

butadiene

0 1
C  -3.850045   0.223218  -0.006058
C  -2.725183  -0.499064   0.062787
C  -1.373589   0.071168   0.021829
C  -0.257416  -0.656592   0.015313
H  -4.850751  -0.232263   0.049755
H  -3.800880   1.301815  -0.063714
H  -2.781838  -1.600342   0.141224
H  -1.329545   1.149358   0.109986
H  -0.272599  -1.734722  -0.012261
H   0.689434  -0.164213   0.021918

