%chk=/home/boittier/MDCM/nms_sampling/butadiene_geom.xyz.dir/butadiene_2254.chk
%nproc=8
%mem=16000MB
#p B2PLYPD3/Def2QZVP 

butadiene

0 1
C  -3.821735   0.217752   0.065193
C  -2.725410  -0.512406  -0.024836
C  -1.379040   0.109575  -0.021697
C  -0.280787  -0.652336   0.072699
H  -4.778547  -0.343986   0.175344
H  -3.689599   1.292698   0.139691
H  -2.819660  -1.564115  -0.283771
H  -1.360390   1.137870  -0.259538
H  -0.481380  -1.713747   0.385251
H   0.809419  -0.349528  -0.009742
