%chk=/home/boittier/MDCM/nms_sampling/butadiene_geom.xyz.dir/butadiene_1118.chk
%nproc=8
%mem=16000MB
#p B2PLYPD3/Def2QZVP 

butadiene

0 1
C  -3.829987   0.218364   0.034204
C  -2.705656  -0.482252   0.018040
C  -1.394845   0.070811   0.017577
C  -0.285621  -0.660627   0.034826
H  -4.800098  -0.287798   0.067248
H  -3.749819   1.307954  -0.084597
H  -2.710738  -1.592946   0.078530
H  -1.301205   1.162606  -0.084532
H  -0.342457  -1.745561   0.012369
H   0.685033  -0.199218   0.091858
