%chk=/home/boittier/MDCM/nms_sampling/butadiene_geom.xyz.dir/butadiene_1953.chk
%nproc=8
%mem=16000MB
#p B2PLYPD3/Def2QZVP 

butadiene

0 1
C  -3.811890   0.221973   0.083091
C  -2.717818  -0.502189  -0.020980
C  -1.396090   0.044123  -0.008900
C  -0.271574  -0.644906   0.069821
H  -4.884955  -0.133428  -0.049939
H  -3.650554   1.356561   0.029031
H  -2.794424  -1.637661  -0.161222
H  -1.354405   1.138734  -0.250025
H  -0.291626  -1.730783   0.269439
H   0.520255  -0.060247  -0.062297

