%chk=/home/boittier/MDCM/nms_sampling/butadiene_geom.xyz.dir/butadiene_2521.chk
%nproc=8
%mem=16000MB
#p B2PLYPD3/Def2QZVP 

butadiene

0 1
C  -3.824419   0.255489  -0.031419
C  -2.729439  -0.573657   0.095600
C  -1.383409   0.043674   0.030642
C  -0.273554  -0.609061   0.009993
H  -4.846139  -0.077248  -0.042393
H  -3.592095   1.355836  -0.030277
H  -2.796544  -1.676923   0.169690
H  -1.319411   1.188734   0.205629
H  -0.355504  -1.761993  -0.043823
H   0.630117  -0.088388  -0.136013
