%chk=/home/boittier/MDCM/nms_sampling/butadiene_geom.xyz.dir/butadiene_706.chk
%nproc=8
%mem=16000MB
#p B2PLYPD3/Def2QZVP 

butadiene

0 1
C  -3.836137   0.227709   0.035261
C  -2.714951  -0.514518   0.019910
C  -1.390167   0.063261  -0.004458
C  -0.266532  -0.642500   0.052908
H  -4.842221  -0.172982   0.028500
H  -3.730962   1.310105   0.054400
H  -2.802732  -1.587915   0.004641
H  -1.336671   1.131273  -0.119585
H  -0.306721  -1.739817   0.072473
H   0.694999  -0.173292   0.027469
