%chk=/home/boittier/MDCM/nms_sampling/butadiene_geom.xyz.dir/butadiene_807.chk
%nproc=8
%mem=16000MB
#p B2PLYPD3/Def2QZVP 

butadiene

0 1
C  -3.837398   0.223006  -0.000696
C  -2.707651  -0.501488   0.061205
C  -1.386984   0.085730   0.044893
C  -0.276216  -0.669413   0.004266
H  -4.789191  -0.243712  -0.001510
H  -3.801659   1.315835  -0.062556
H  -2.758298  -1.584763   0.033033
H  -1.332763   1.152596  -0.011900
H  -0.302098  -1.728096   0.089417
H   0.662701  -0.175480  -0.031207
