%chk=/home/boittier/MDCM/nms_sampling/butadiene_geom.xyz.dir/butadiene_2156.chk
%nproc=8
%mem=16000MB
#p B2PLYPD3/Def2QZVP 

butadiene

0 1
C  -3.837118   0.208958  -0.045096
C  -2.668439  -0.474181   0.111328
C  -1.413518   0.082073   0.137330
C  -0.306556  -0.678756  -0.068432
H  -4.780412  -0.230144  -0.154222
H  -3.871059   1.324622  -0.141987
H  -2.581116  -1.545885   0.105127
H  -1.279649   1.246842  -0.094888
H  -0.306304  -1.761123   0.066367
H   0.713765  -0.277822  -0.077339
