%chk=/home/boittier/MDCM/nms_sampling/butadiene_geom.xyz.dir/butadiene_1370.chk
%nproc=8
%mem=16000MB
#p B2PLYPD3/Def2QZVP 

butadiene

0 1
C  -3.834807   0.216630   0.041135
C  -2.715368  -0.491675  -0.003923
C  -1.382191   0.082940  -0.028824
C  -0.265892  -0.655877   0.057349
H  -4.849539  -0.243995   0.132711
H  -3.846250   1.271579   0.081195
H  -2.772900  -1.574194   0.129174
H  -1.385009   1.140271  -0.019588
H  -0.372474  -1.774756   0.081609
H   0.779479  -0.247917   0.162417
