%chk=/home/boittier/MDCM/nms_sampling/butadiene_geom.xyz.dir/butadiene_574.chk
%nproc=8
%mem=16000MB
#p B2PLYPD3/Def2QZVP 

butadiene

0 1
C  -3.830870   0.211326   0.026813
C  -2.707288  -0.490459   0.036325
C  -1.386081   0.080754  -0.002157
C  -0.275221  -0.660580   0.047220
H  -4.813827  -0.234963   0.022079
H  -3.835941   1.296637  -0.001297
H  -2.806779  -1.551805  -0.006191
H  -1.338542   1.163925  -0.039792
H  -0.360118  -1.744151   0.056877
H   0.725008  -0.228482  -0.008990

