%chk=/home/boittier/MDCM/nms_sampling/butadiene_geom.xyz.dir/butadiene_813.chk
%nproc=8
%mem=16000MB
#p B2PLYPD3/Def2QZVP 

butadiene

0 1
C  -3.844462   0.227126   0.002358
C  -2.726128  -0.499891   0.070707
C  -1.382116   0.054194   0.037251
C  -0.249965  -0.644211   0.010466
H  -4.821839  -0.202574  -0.060597
H  -3.827206   1.289154  -0.084968
H  -2.816019  -1.586640   0.043263
H  -1.337270   1.134642   0.000950
H  -0.287128  -1.727561   0.021195
H   0.704107  -0.175457  -0.036524

