%chk=/home/boittier/MDCM/nms_sampling/butadiene_geom.xyz.dir/butadiene_31.chk
%nproc=8
%mem=16000MB
#p B2PLYPD3/Def2QZVP 

butadiene

0 1
C  -3.843589   0.224070   0.011689
C  -2.725037  -0.499083   0.055644
C  -1.380820   0.066733   0.023179
C  -0.256858  -0.660050   0.017995
H  -4.813877  -0.219925  -0.048004
H  -3.813573   1.303234  -0.066070
H  -2.800061  -1.571587   0.079975
H  -1.327952   1.156700   0.045171
H  -0.243806  -1.724128   0.055459
H   0.655880  -0.140112  -0.024223
