%chk=/home/boittier/MDCM/nms_sampling/butadiene_geom.xyz.dir/butadiene_103.chk
%nproc=8
%mem=16000MB
#p B2PLYPD3/Def2QZVP 

butadiene

0 1
C  -3.846095   0.234734   0.044198
C  -2.713488  -0.504407   0.004267
C  -1.384621   0.057819   0.000059
C  -0.258575  -0.648647   0.047776
H  -4.806647  -0.238029   0.040062
H  -3.861703   1.293817  -0.012763
H  -2.800054  -1.579408   0.068008
H  -1.333600   1.139479  -0.051422
H  -0.281050  -1.730530   0.104082
H   0.699455  -0.181906   0.027890

