%chk=/home/boittier/MDCM/nms_sampling/butadiene_geom.xyz.dir/butadiene_1832.chk
%nproc=8
%mem=16000MB
#p B2PLYPD3/Def2QZVP 

butadiene

0 1
C  -3.836715   0.228613   0.054598
C  -2.711035  -0.523569  -0.015385
C  -1.381186   0.090286  -0.008635
C  -0.278733  -0.653303   0.048885
H  -4.808973  -0.187879   0.168248
H  -3.837541   1.292847  -0.032158
H  -2.755130  -1.591327   0.032238
H  -1.336383   1.156333  -0.092200
H  -0.339020  -1.737262   0.137630
H   0.750950  -0.252697   0.165631
