%chk=/home/boittier/MDCM/nms_sampling/butadiene_geom.xyz.dir/butadiene_203.chk
%nproc=8
%mem=16000MB
#p B2PLYPD3/Def2QZVP 

butadiene

0 1
C  -3.842175   0.233740  -0.000624
C  -2.723175  -0.502342   0.054310
C  -1.388998   0.050618   0.025810
C  -0.262231  -0.645743   0.016483
H  -4.802622  -0.227565   0.030869
H  -3.803194   1.316179  -0.038489
H  -2.751923  -1.589333   0.163974
H  -1.320443   1.143354   0.034743
H  -0.231789  -1.729924  -0.031713
H   0.701997  -0.165420   0.054807
