%chk=/home/boittier/MDCM/nms_sampling/butadiene_geom.xyz.dir/butadiene_2295.chk
%nproc=8
%mem=16000MB
#p B2PLYPD3/Def2QZVP 

butadiene

0 1
C  -3.863337   0.241595  -0.005215
C  -2.721968  -0.505418   0.054940
C  -1.371704   0.029922   0.035983
C  -0.237325  -0.630372  -0.020284
H  -4.866467  -0.203127   0.029644
H  -3.930645   1.370512  -0.110043
H  -2.781627  -1.638090   0.318516
H  -1.409203   1.118702   0.166427
H  -0.200023  -1.715249   0.014514
H   0.707862  -0.205227   0.213421
