%chk=/home/boittier/MDCM/nms_sampling/butadiene_geom.xyz.dir/butadiene_1693.chk
%nproc=8
%mem=16000MB
#p B2PLYPD3/Def2QZVP 

butadiene

0 1
C  -3.834044   0.208700   0.053169
C  -2.704168  -0.484404  -0.007545
C  -1.393998   0.088386  -0.022688
C  -0.273043  -0.655919   0.057229
H  -4.793170  -0.295230   0.201147
H  -3.824336   1.327273  -0.023971
H  -2.788985  -1.576625  -0.066293
H  -1.324442   1.155922  -0.059233
H  -0.385970  -1.766333   0.179897
H   0.767434  -0.318130   0.128409
