%chk=/home/boittier/MDCM/nms_sampling/butadiene_geom.xyz.dir/butadiene_560.chk
%nproc=8
%mem=16000MB
#p B2PLYPD3/Def2QZVP 

butadiene

0 1
C  -3.851653   0.208158   0.042657
C  -2.726848  -0.482765   0.003029
C  -1.379460   0.076592  -0.014845
C  -0.258837  -0.658651   0.059726
H  -4.820056  -0.250704   0.105901
H  -3.826566   1.308358  -0.008983
H  -2.759622  -1.566290   0.052507
H  -1.249996   1.156033  -0.005631
H  -0.287923  -1.752543   0.083674
H   0.732694  -0.210325   0.025408

