%chk=/home/boittier/MDCM/nms_sampling/butadiene_geom.xyz.dir/butadiene_2293.chk
%nproc=8
%mem=16000MB
#p B2PLYPD3/Def2QZVP 

butadiene

0 1
C  -3.832715   0.250506  -0.008804
C  -2.732350  -0.551034   0.101479
C  -1.412121   0.027699   0.070017
C  -0.249493  -0.600476  -0.026723
H  -4.779345  -0.139492  -0.403141
H  -3.592384   1.354656  -0.064943
H  -2.786509  -1.559257   0.233807
H  -1.334455   1.103288   0.057456
H  -0.374667  -1.722998   0.021805
H   0.806356  -0.193268  -0.129361
