%chk=/home/boittier/MDCM/nms_sampling/butadiene_geom.xyz.dir/butadiene_1226.chk
%nproc=8
%mem=16000MB
#p B2PLYPD3/Def2QZVP 

butadiene

0 1
C  -3.845893   0.218225  -0.016339
C  -2.736605  -0.488740   0.061399
C  -1.373647   0.078136   0.072533
C  -0.255829  -0.651704  -0.014665
H  -4.795263  -0.305735  -0.059768
H  -3.811310   1.272282  -0.006609
H  -2.773829  -1.612052   0.150019
H  -1.277073   1.167627   0.003851
H  -0.372492  -1.759631   0.126270
H   0.762294  -0.228544  -0.104986
