%chk=/home/boittier/MDCM/nms_sampling/butadiene_geom.xyz.dir/butadiene_866.chk
%nproc=8
%mem=16000MB
#p B2PLYPD3/Def2QZVP 

butadiene

0 1
C  -3.839268   0.225926   0.009677
C  -2.724554  -0.493565   0.052600
C  -1.383661   0.052115   0.031147
C  -0.255143  -0.649121   0.013785
H  -4.819211  -0.225181  -0.057504
H  -3.788237   1.303889  -0.060869
H  -2.816811  -1.573912   0.126022
H  -1.344448   1.109197   0.035302
H  -0.274821  -1.734521   0.042645
H   0.654744  -0.126073  -0.022303

