%chk=/home/boittier/MDCM/nms_sampling/butadiene_geom.xyz.dir/butadiene_2103.chk
%nproc=8
%mem=16000MB
#p B2PLYPD3/Def2QZVP 

butadiene

0 1
C  -3.878248   0.192391   0.066834
C  -2.731054  -0.454841  -0.000257
C  -1.367339   0.086984  -0.045989
C  -0.252632  -0.662831   0.103393
H  -4.890344  -0.272179   0.062569
H  -3.865287   1.237713   0.089835
H  -2.688871  -1.595838  -0.211556
H  -1.161110   1.165942  -0.216496
H  -0.289327  -1.768905   0.098868
H   0.829619  -0.279604  -0.052405

