%chk=/home/boittier/MDCM/nms_sampling/butadiene_geom.xyz.dir/butadiene_1817.chk
%nproc=8
%mem=16000MB
#p B2PLYPD3/Def2QZVP 

butadiene

0 1
C  -3.831264   0.238301  -0.020935
C  -2.722402  -0.525139   0.083033
C  -1.388123   0.069270   0.060808
C  -0.267315  -0.640691  -0.021436
H  -4.820129  -0.280507  -0.092650
H  -3.747137   1.350260  -0.032103
H  -2.795127  -1.619413   0.164822
H  -1.299798   1.144234   0.043040
H  -0.357589  -1.721807   0.059074
H   0.728078  -0.193811  -0.002313
