%chk=/home/boittier/MDCM/nms_sampling/butadiene_geom.xyz.dir/butadiene_659.chk
%nproc=8
%mem=16000MB
#p B2PLYPD3/Def2QZVP 

butadiene

0 1
C  -3.839942   0.227779   0.043576
C  -2.727177  -0.507597   0.018575
C  -1.383762   0.060577  -0.019024
C  -0.250679  -0.646284   0.051335
H  -4.834485  -0.199092   0.075965
H  -3.814136   1.311410  -0.032602
H  -2.820564  -1.602211   0.000774
H  -1.353338   1.136100  -0.032692
H  -0.298182  -1.698518   0.073829
H   0.726173  -0.184561   0.112494

