%chk=/home/boittier/MDCM/nms_sampling/butadiene_geom.xyz.dir/butadiene_821.chk
%nproc=8
%mem=16000MB
#p B2PLYPD3/Def2QZVP 

butadiene

0 1
C  -3.845706   0.220225   0.041285
C  -2.722552  -0.489680   0.005680
C  -1.382289   0.072777  -0.006614
C  -0.255054  -0.657420   0.046962
H  -4.819415  -0.274410   0.101146
H  -3.864895   1.297980  -0.035588
H  -2.776999  -1.568230   0.044318
H  -1.343222   1.172816   0.010258
H  -0.292232  -1.740757   0.131999
H   0.751164  -0.239947   0.041109
