%chk=/home/boittier/MDCM/nms_sampling/butadiene_geom.xyz.dir/butadiene_2572.chk
%nproc=8
%mem=16000MB
#p B2PLYPD3/Def2QZVP 

butadiene

0 1
C  -3.820803   0.232539  -0.033134
C  -2.718121  -0.517680   0.108438
C  -1.390007   0.090139   0.048705
C  -0.299562  -0.677655   0.006702
H  -4.769327  -0.271931  -0.206338
H  -3.752891   1.322273   0.046729
H  -2.632720  -1.521662   0.159403
H  -1.297406   1.198357   0.047269
H  -0.264934  -1.715836  -0.081183
H   0.657123  -0.138094  -0.190747

