%chk=/home/boittier/MDCM/nms_sampling/butadiene_geom.xyz.dir/butadiene_429.chk
%nproc=8
%mem=16000MB
#p B2PLYPD3/Def2QZVP 

butadiene

0 1
C  -3.833864   0.233897   0.041473
C  -2.723247  -0.521567   0.010340
C  -1.387384   0.064573   0.002110
C  -0.264019  -0.641350   0.044012
H  -4.825596  -0.219907   0.024769
H  -3.792018   1.322752   0.039434
H  -2.815152  -1.586988   0.008924
H  -1.320557   1.147599  -0.124125
H  -0.298405  -1.702142   0.139409
H   0.749185  -0.209553   0.047064
