%chk=/home/boittier/MDCM/nms_sampling/butadiene_geom.xyz.dir/butadiene_41.chk
%nproc=8
%mem=16000MB
#p B2PLYPD3/Def2QZVP 

butadiene

0 1
C  -3.841979   0.212780   0.041953
C  -2.711191  -0.482105   0.007998
C  -1.376853   0.073730  -0.005628
C  -0.269034  -0.660032   0.048105
H  -4.815102  -0.274971   0.084419
H  -3.867723   1.294100  -0.060855
H  -2.816433  -1.549586   0.058774
H  -1.323692   1.157281   0.023576
H  -0.325644  -1.748772   0.101139
H   0.712718  -0.216882   0.028360

