%chk=/home/boittier/MDCM/nms_sampling/butadiene_geom.xyz.dir/butadiene_701.chk
%nproc=8
%mem=16000MB
#p B2PLYPD3/Def2QZVP 

butadiene

0 1
C  -3.852309   0.223010   0.035786
C  -2.717054  -0.496207   0.018884
C  -1.375004   0.080242   0.008168
C  -0.262586  -0.663016   0.042826
H  -4.805284  -0.263684  -0.024686
H  -3.855293   1.295981   0.025215
H  -2.767825  -1.576266   0.043681
H  -1.301665   1.143401  -0.081796
H  -0.288299  -1.747858   0.110132
H   0.680424  -0.188417  -0.023423
