%chk=/home/boittier/MDCM/nms_sampling/butadiene_geom.xyz.dir/butadiene_410.chk
%nproc=8
%mem=16000MB
#p B2PLYPD3/Def2QZVP 

butadiene

0 1
C  -3.830632   0.231429   0.035452
C  -2.724446  -0.519648   0.006523
C  -1.387831   0.074701   0.006489
C  -0.267486  -0.656543   0.040833
H  -4.830445  -0.190451   0.121899
H  -3.754078   1.314054  -0.011446
H  -2.770937  -1.603506   0.046936
H  -1.348146   1.160835  -0.085747
H  -0.278493  -1.727196   0.095972
H   0.691373  -0.133224   0.092568

