%chk=/home/boittier/MDCM/nms_sampling/butadiene_geom.xyz.dir/butadiene_814.chk
%nproc=8
%mem=16000MB
#p B2PLYPD3/Def2QZVP 

butadiene

0 1
C  -3.851766   0.212197  -0.001578
C  -2.725316  -0.491015   0.051992
C  -1.370360   0.087061   0.030549
C  -0.255910  -0.663409   0.016928
H  -4.812789  -0.249699  -0.005905
H  -3.850070   1.290190   0.047593
H  -2.811349  -1.576267   0.111090
H  -1.308827   1.140464  -0.030823
H  -0.324589  -1.751709   0.053091
H   0.722248  -0.195416  -0.009711
