%chk=/home/boittier/MDCM/nms_sampling/butadiene_geom.xyz.dir/butadiene_1675.chk
%nproc=8
%mem=16000MB
#p B2PLYPD3/Def2QZVP 

butadiene

0 1
C  -3.827953   0.250191  -0.013229
C  -2.715614  -0.536177   0.084223
C  -1.411190   0.054209   0.034041
C  -0.268752  -0.634471   0.009574
H  -4.842131  -0.156523  -0.014633
H  -3.713572   1.309531  -0.019844
H  -2.722061  -1.592220  -0.002356
H  -1.338629   1.112612  -0.008640
H  -0.225442  -1.715517   0.028791
H   0.726428  -0.189353  -0.031574
