%chk=/home/boittier/MDCM/nms_sampling/butadiene_geom.xyz.dir/butadiene_412.chk
%nproc=8
%mem=16000MB
#p B2PLYPD3/Def2QZVP 

butadiene

0 1
C  -3.825425   0.227124   0.026356
C  -2.714984  -0.507618   0.023674
C  -1.391713   0.070955   0.000158
C  -0.273370  -0.656280   0.046413
H  -4.845367  -0.185444   0.073298
H  -3.788244   1.293928  -0.021182
H  -2.795413  -1.609662   0.073908
H  -1.337345   1.151085   0.011072
H  -0.263085  -1.720802   0.044326
H   0.674881  -0.159166   0.004078

