%chk=/home/boittier/MDCM/nms_sampling/butadiene_geom.xyz.dir/butadiene_125.chk
%nproc=8
%mem=16000MB
#p B2PLYPD3/Def2QZVP 

butadiene

0 1
C  -3.846701   0.210824   0.019000
C  -2.718780  -0.480825   0.039101
C  -1.372877   0.080271   0.020118
C  -0.264393  -0.666797   0.021601
H  -4.792245  -0.282184  -0.008969
H  -3.846448   1.278532  -0.076188
H  -2.802577  -1.554470   0.152998
H  -1.293981   1.176427   0.033678
H  -0.331698  -1.741118   0.012757
H   0.675961  -0.199313   0.047841
