%chk=/home/boittier/MDCM/nms_sampling/butadiene_geom.xyz.dir/butadiene_1440.chk
%nproc=8
%mem=16000MB
#p B2PLYPD3/Def2QZVP 

butadiene

0 1
C  -3.821721   0.230182   0.002499
C  -2.704245  -0.506689   0.052433
C  -1.408346   0.066775   0.044131
C  -0.282876  -0.650926   0.005653
H  -4.824530  -0.204199   0.030757
H  -3.732158   1.310704  -0.198774
H  -2.780812  -1.574553   0.171598
H  -1.362465   1.141652   0.166175
H  -0.205294  -1.767309   0.011957
H   0.697570  -0.190704  -0.055934
