%chk=/home/boittier/MDCM/nms_sampling/butadiene_geom.xyz.dir/butadiene_1893.chk
%nproc=8
%mem=16000MB
#p B2PLYPD3/Def2QZVP 

butadiene

0 1
C  -3.839610   0.205806   0.034109
C  -2.696254  -0.478139   0.008854
C  -1.390710   0.078272  -0.020422
C  -0.281239  -0.659895   0.058230
H  -4.806354  -0.244382   0.070032
H  -3.838165   1.289234   0.066642
H  -2.756738  -1.569985   0.165130
H  -1.290799   1.201718  -0.013695
H  -0.384595  -1.760967   0.002138
H   0.748940  -0.265560   0.098770

