%chk=/home/boittier/MDCM/nms_sampling/butadiene_geom.xyz.dir/butadiene_648.chk
%nproc=8
%mem=16000MB
#p B2PLYPD3/Def2QZVP 

butadiene

0 1
C  -3.825758   0.232441   0.010086
C  -2.717100  -0.517943   0.042529
C  -1.395020   0.063205   0.017521
C  -0.271570  -0.649996   0.031202
H  -4.830827  -0.182529   0.020816
H  -3.799036   1.335531  -0.019959
H  -2.773480  -1.578436   0.130609
H  -1.329064   1.149250   0.017912
H  -0.246842  -1.725091  -0.005719
H   0.682043  -0.154704  -0.006637

