%chk=/home/boittier/MDCM/nms_sampling/butadiene_geom.xyz.dir/butadiene_2078.chk
%nproc=8
%mem=16000MB
#p B2PLYPD3/Def2QZVP 

butadiene

0 1
C  -3.866601   0.184195  -0.010211
C  -2.691782  -0.434237   0.021964
C  -1.386329   0.106335   0.041464
C  -0.265300  -0.702017   0.021744
H  -4.802863  -0.267544   0.177516
H  -3.940242   1.211060   0.003552
H  -2.740622  -1.488530   0.247273
H  -1.293788   1.177072   0.091145
H  -0.232547  -1.818718   0.034746
H   0.682564  -0.232058  -0.066635
