%chk=/home/boittier/MDCM/nms_sampling/butadiene_geom.xyz.dir/butadiene_1356.chk
%nproc=8
%mem=16000MB
#p B2PLYPD3/Def2QZVP 

butadiene

0 1
C  -3.835376   0.225951  -0.014709
C  -2.717151  -0.513779   0.050135
C  -1.398465   0.068947   0.033377
C  -0.268297  -0.641456   0.010384
H  -4.837825  -0.215915   0.168145
H  -3.697457   1.339186  -0.083900
H  -2.715346  -1.583502   0.178579
H  -1.290973   1.158797   0.157533
H  -0.334025  -1.753784   0.014690
H   0.705939  -0.229852   0.006739

