%chk=/home/boittier/MDCM/nms_sampling/butadiene_geom.xyz.dir/butadiene_1692.chk
%nproc=8
%mem=16000MB
#p B2PLYPD3/Def2QZVP 

butadiene

0 1
C  -3.846149   0.213407   0.058671
C  -2.694785  -0.487310   0.004495
C  -1.377819   0.101994  -0.016970
C  -0.279281  -0.674743   0.052923
H  -4.815167  -0.284652   0.048462
H  -3.830491   1.269947  -0.077832
H  -2.723795  -1.575261   0.058747
H  -1.376004   1.173122  -0.081475
H  -0.425310  -1.745466   0.017803
H   0.716696  -0.276536   0.180481

