%chk=/home/boittier/MDCM/nms_sampling/butadiene_geom.xyz.dir/butadiene_1472.chk
%nproc=8
%mem=16000MB
#p B2PLYPD3/Def2QZVP 

butadiene

0 1
C  -3.869439   0.209887  -0.029345
C  -2.714955  -0.474475   0.088975
C  -1.357620   0.086172   0.060749
C  -0.250931  -0.668496  -0.005975
H  -4.803345  -0.310270  -0.026067
H  -3.914379   1.271668  -0.004058
H  -2.788564  -1.545852   0.101545
H  -1.373079   1.175913  -0.045660
H  -0.352281  -1.756731  -0.035536
H   0.715617  -0.271520  -0.023812
