%chk=/home/boittier/MDCM/nms_sampling/butadiene_geom.xyz.dir/butadiene_2785.chk
%nproc=8
%mem=16000MB
#p B2PLYPD3/Def2QZVP 

butadiene

0 1
C  -3.877009   0.196158   0.048437
C  -2.721121  -0.470539   0.009967
C  -1.363719   0.079980  -0.029967
C  -0.239704  -0.668339   0.078194
H  -4.872712  -0.207105   0.091202
H  -3.753102   1.274596   0.016573
H  -2.775116  -1.515486   0.071510
H  -1.342347   1.134340  -0.168542
H  -0.345749  -1.808960  -0.145596
H   0.663302  -0.129556   0.184686
