%chk=/home/boittier/MDCM/nms_sampling/butadiene_geom.xyz.dir/butadiene_1252.chk
%nproc=8
%mem=16000MB
#p B2PLYPD3/Def2QZVP 

butadiene

0 1
C  -3.832994   0.221724  -0.004222
C  -2.696868  -0.488540   0.072757
C  -1.388901   0.068360   0.019665
C  -0.284314  -0.653890   0.002659
H  -4.730021  -0.267957   0.007688
H  -3.805825   1.304309  -0.123129
H  -2.774961  -1.596288   0.162694
H  -1.350840   1.134632   0.178257
H  -0.429850  -1.750150  -0.003119
H   0.705742  -0.209753   0.075168
