%chk=/home/boittier/MDCM/nms_sampling/butadiene_geom.xyz.dir/butadiene_2491.chk
%nproc=8
%mem=16000MB
#p B2PLYPD3/Def2QZVP 

butadiene

0 1
C  -3.870345   0.179557  -0.068671
C  -2.710662  -0.427211   0.118838
C  -1.380544   0.087528   0.085283
C  -0.279774  -0.684139  -0.019834
H  -4.728751  -0.338220   0.037821
H  -3.869690   1.289340   0.041978
H  -2.686280  -1.566663  -0.002796
H  -1.106469   1.211222   0.027879
H  -0.260698  -1.783396   0.063712
H   0.733072  -0.236703  -0.228478

