%chk=/home/boittier/MDCM/nms_sampling/butadiene_geom.xyz.dir/butadiene_2023.chk
%nproc=8
%mem=16000MB
#p B2PLYPD3/Def2QZVP 

butadiene

0 1
C  -3.845281   0.208925  -0.043368
C  -2.702072  -0.504799   0.105590
C  -1.371405   0.150547   0.097728
C  -0.282924  -0.702813  -0.063248
H  -4.839430  -0.327665  -0.156266
H  -3.878156   1.264798  -0.091157
H  -2.608082  -1.580564   0.291999
H  -1.262317   1.300162   0.102721
H  -0.511863  -1.788120   0.041723
H   0.691645  -0.266491   0.037824

