%chk=/home/boittier/MDCM/nms_sampling/butadiene_geom.xyz.dir/butadiene_2453.chk
%nproc=8
%mem=16000MB
#p B2PLYPD3/Def2QZVP 

butadiene

0 1
C  -3.855772   0.200914   0.043398
C  -2.690319  -0.435482  -0.034163
C  -1.395529   0.071628  -0.035957
C  -0.272689  -0.670163   0.081279
H  -4.656335  -0.343345   0.360014
H  -3.920892   1.249380   0.118928
H  -2.851334  -1.553776   0.073812
H  -1.334854   1.122291  -0.114670
H  -0.281900  -1.730582   0.054268
H   0.795262  -0.324463   0.200762

