%chk=/home/boittier/MDCM/nms_sampling/butadiene_geom.xyz.dir/butadiene_1864.chk
%nproc=8
%mem=16000MB
#p B2PLYPD3/Def2QZVP 

butadiene

0 1
C  -3.831728   0.234644   0.011321
C  -2.729934  -0.511326   0.037094
C  -1.390881   0.057984   0.032768
C  -0.261858  -0.651048   0.032963
H  -4.828979  -0.221461   0.107131
H  -3.791918   1.323880  -0.139290
H  -2.830279  -1.576919   0.096309
H  -1.325184   1.113431   0.012540
H  -0.161240  -1.676417  -0.057134
H   0.706025  -0.145632  -0.036239
