%chk=/home/boittier/MDCM/nms_sampling/butadiene_geom.xyz.dir/butadiene_1671.chk
%nproc=8
%mem=16000MB
#p B2PLYPD3/Def2QZVP 

butadiene

0 1
C  -3.866584   0.211365  -0.018299
C  -2.723381  -0.482794   0.087312
C  -1.373821   0.073780   0.051890
C  -0.247403  -0.650259   0.007610
H  -4.819851  -0.306155  -0.112303
H  -3.849579   1.286231   0.002166
H  -2.784244  -1.523291   0.108277
H  -1.241851   1.152731  -0.061108
H  -0.346690  -1.743498  -0.073635
H   0.767855  -0.284604  -0.075067

