%chk=/home/boittier/MDCM/nms_sampling/butadiene_geom.xyz.dir/butadiene_753.chk
%nproc=8
%mem=16000MB
#p B2PLYPD3/Def2QZVP 

butadiene

0 1
C  -3.852144   0.220278   0.037168
C  -2.723004  -0.496626   0.017276
C  -1.374627   0.074482  -0.008754
C  -0.256901  -0.653256   0.054851
H  -4.807170  -0.266789  -0.021050
H  -3.842378   1.295720   0.083031
H  -2.779981  -1.564107   0.053555
H  -1.284621   1.158517  -0.084737
H  -0.343563  -1.772117   0.084948
H   0.719471  -0.196877  -0.003476

