%chk=/home/boittier/MDCM/nms_sampling/butadiene_geom.xyz.dir/butadiene_2733.chk
%nproc=8
%mem=16000MB
#p B2PLYPD3/Def2QZVP 

butadiene

0 1
C  -3.834987   0.216613   0.101319
C  -2.733464  -0.520547  -0.068488
C  -1.371153   0.110174  -0.054083
C  -0.268658  -0.677182   0.089178
H  -4.792649  -0.209627   0.131025
H  -3.784508   1.352616  -0.026283
H  -2.708657  -1.614172   0.164190
H  -1.344491   1.245810  -0.037526
H  -0.332226  -1.755759   0.114847
H   0.643905  -0.171029   0.195901

