%chk=/home/boittier/MDCM/nms_sampling/butadiene_geom.xyz.dir/butadiene_1540.chk
%nproc=8
%mem=16000MB
#p B2PLYPD3/Def2QZVP 

butadiene

0 1
C  -3.847061   0.203483  -0.015601
C  -2.711247  -0.475356   0.100301
C  -1.377360   0.088143   0.051390
C  -0.272228  -0.669582  -0.001976
H  -4.809304  -0.298809  -0.114116
H  -3.783649   1.296644  -0.099780
H  -2.765493  -1.556611   0.004368
H  -1.348405   1.197547   0.023796
H  -0.384321  -1.751595   0.007930
H   0.763807  -0.238819  -0.105960
