%chk=/home/boittier/MDCM/nms_sampling/butadiene_geom.xyz.dir/butadiene_1907.chk
%nproc=8
%mem=16000MB
#p B2PLYPD3/Def2QZVP 

butadiene

0 1
C  -3.851113   0.220463  -0.026464
C  -2.737326  -0.494919   0.084575
C  -1.374955   0.075795   0.035402
C  -0.251104  -0.650337   0.005729
H  -4.804049  -0.279658   0.105296
H  -3.878206   1.249560  -0.098159
H  -2.813611  -1.555789   0.134941
H  -1.227913   1.159613   0.098941
H  -0.289881  -1.743695  -0.108050
H   0.778707  -0.237734   0.055555

