%chk=/home/boittier/MDCM/nms_sampling/butadiene_geom.xyz.dir/butadiene_547.chk
%nproc=8
%mem=16000MB
#p B2PLYPD3/Def2QZVP 

butadiene

0 1
C  -3.832264   0.217955   0.000502
C  -2.712851  -0.493988   0.043074
C  -1.386443   0.069436   0.032240
C  -0.277057  -0.659527   0.020709
H  -4.822603  -0.231194   0.111133
H  -3.781620   1.304061  -0.040183
H  -2.747367  -1.570915   0.105392
H  -1.308123   1.177367  -0.017487
H  -0.342015  -1.728091  -0.001362
H   0.687745  -0.168089   0.036304
