%chk=/home/boittier/MDCM/nms_sampling/butadiene_geom.xyz.dir/butadiene_2388.chk
%nproc=8
%mem=16000MB
#p B2PLYPD3/Def2QZVP 

butadiene

0 1
C  -3.836109   0.210184   0.084783
C  -2.719481  -0.455683  -0.033839
C  -1.370312   0.088846  -0.059715
C  -0.265252  -0.673971   0.090566
H  -4.686267  -0.387855   0.122286
H  -3.982300   1.227241  -0.070661
H  -2.857506  -1.560566   0.025731
H  -1.311345   1.124853   0.095807
H  -0.377608  -1.804537   0.159853
H   0.673104  -0.218013   0.033724
