%chk=/home/boittier/MDCM/nms_sampling/butadiene_geom.xyz.dir/butadiene_1488.chk
%nproc=8
%mem=16000MB
#p B2PLYPD3/Def2QZVP 

butadiene

0 1
C  -3.828103   0.201404  -0.016253
C  -2.706044  -0.465214   0.072936
C  -1.396241   0.084796   0.076299
C  -0.288423  -0.669194  -0.022701
H  -4.789639  -0.261355  -0.083478
H  -3.787119   1.285944  -0.037023
H  -2.718115  -1.580932   0.117828
H  -1.291949   1.173301  -0.043988
H  -0.305281  -1.776646   0.095075
H   0.698406  -0.244995  -0.036377

