%chk=/home/boittier/MDCM/nms_sampling/butadiene_geom.xyz.dir/butadiene_1225.chk
%nproc=8
%mem=16000MB
#p B2PLYPD3/Def2QZVP 

butadiene

0 1
C  -3.841774   0.207837   0.037782
C  -2.702535  -0.486648   0.003159
C  -1.385302   0.087584   0.014150
C  -0.287058  -0.667532   0.030098
H  -4.778145  -0.270956  -0.003047
H  -3.839467   1.300775   0.073979
H  -2.769865  -1.532440   0.063070
H  -1.204833   1.177001  -0.083235
H  -0.324015  -1.730040   0.240648
H   0.701526  -0.233138   0.005371

