%chk=/home/boittier/MDCM/nms_sampling/butadiene_geom.xyz.dir/butadiene_2365.chk
%nproc=8
%mem=16000MB
#p B2PLYPD3/Def2QZVP 

butadiene

0 1
C  -3.802393   0.239437  -0.008639
C  -2.704104  -0.502173   0.037710
C  -1.432514   0.026548   0.061559
C  -0.274007  -0.633661  -0.021622
H  -4.806603  -0.204287   0.059776
H  -3.697648   1.370719  -0.093515
H  -2.858064  -1.641706   0.320240
H  -1.423177   1.124918   0.130953
H  -0.198874  -1.644925   0.081894
H   0.749134  -0.194193   0.078492

