%chk=/home/boittier/MDCM/nms_sampling/butadiene_geom.xyz.dir/butadiene_904.chk
%nproc=8
%mem=16000MB
#p B2PLYPD3/Def2QZVP 

butadiene

0 1
C  -3.842282   0.223257   0.032653
C  -2.726348  -0.489438   0.026238
C  -1.382260   0.075138  -0.011595
C  -0.258020  -0.665668   0.041412
H  -4.767053  -0.296398   0.027670
H  -3.842971   1.292292   0.051638
H  -2.792711  -1.576859  -0.003499
H  -1.322887   1.161292  -0.030937
H  -0.286930  -1.719284   0.159255
H   0.706650  -0.181654   0.054553
