%chk=/home/boittier/MDCM/nms_sampling/butadiene_geom.xyz.dir/butadiene_607.chk
%nproc=8
%mem=16000MB
#p B2PLYPD3/Def2QZVP 

butadiene

0 1
C  -3.835941   0.219290   0.007133
C  -2.720026  -0.500051   0.055173
C  -1.386851   0.088226   0.014447
C  -0.267484  -0.658836   0.031622
H  -4.803527  -0.243534  -0.027679
H  -3.811074   1.290305   0.003336
H  -2.763370  -1.602456   0.068638
H  -1.315425   1.170068   0.024476
H  -0.326976  -1.754859   0.032424
H   0.728930  -0.242693  -0.063426

