%chk=/home/boittier/MDCM/nms_sampling/butadiene_geom.xyz.dir/butadiene_1622.chk
%nproc=8
%mem=16000MB
#p B2PLYPD3/Def2QZVP 

butadiene

0 1
C  -3.865589   0.214240   0.024876
C  -2.724525  -0.491721   0.034101
C  -1.369697   0.086423   0.003004
C  -0.254395  -0.655680   0.042459
H  -4.821343  -0.273038  -0.016748
H  -3.868918   1.261619   0.124480
H  -2.805048  -1.565146  -0.016901
H  -1.215707   1.136813  -0.185118
H  -0.306354  -1.746034   0.089402
H   0.770890  -0.250110   0.047997

