%chk=/home/boittier/MDCM/nms_sampling/butadiene_geom.xyz.dir/butadiene_874.chk
%nproc=8
%mem=16000MB
#p B2PLYPD3/Def2QZVP 

butadiene

0 1
C  -3.839430   0.224044   0.023917
C  -2.707286  -0.493241   0.027847
C  -1.388734   0.081734   0.024167
C  -0.275949  -0.663289   0.026084
H  -4.750641  -0.295391   0.035719
H  -3.835803   1.303049  -0.095885
H  -2.737098  -1.578009   0.120379
H  -1.318611   1.150031   0.010720
H  -0.351400  -1.736478   0.035908
H   0.717845  -0.234455   0.021156

