%chk=/home/boittier/MDCM/nms_sampling/butadiene_geom.xyz.dir/butadiene_2743.chk
%nproc=8
%mem=16000MB
#p B2PLYPD3/Def2QZVP 

butadiene

0 1
C  -3.847037   0.231434  -0.025300
C  -2.745602  -0.516238   0.109383
C  -1.374616   0.021675   0.039050
C  -0.215363  -0.608006   0.011437
H  -4.891095  -0.098025  -0.194701
H  -3.837158   1.279009  -0.046145
H  -2.973411  -1.545417   0.103077
H  -1.403722   1.071049   0.163781
H  -0.276309  -1.731138  -0.032119
H   0.750612  -0.173365  -0.259299
