%chk=/home/boittier/MDCM/nms_sampling/butadiene_geom.xyz.dir/butadiene_1143.chk
%nproc=8
%mem=16000MB
#p B2PLYPD3/Def2QZVP 

butadiene

0 1
C  -3.846497   0.231313   0.009897
C  -2.722028  -0.507305   0.068880
C  -1.380136   0.038508   0.019614
C  -0.247039  -0.628022   0.016285
H  -4.873817  -0.184076  -0.151800
H  -3.791790   1.300831  -0.015816
H  -2.905965  -1.615420   0.060874
H  -1.373847   1.144753   0.048560
H  -0.277142  -1.725521   0.089453
H   0.750233  -0.172748  -0.074873

