%chk=/home/boittier/MDCM/nms_sampling/butadiene_geom.xyz.dir/butadiene_106.chk
%nproc=8
%mem=16000MB
#p B2PLYPD3/Def2QZVP 

butadiene

0 1
C  -3.828245   0.227443   0.038336
C  -2.723544  -0.516986   0.014429
C  -1.391402   0.068405   0.002992
C  -0.267784  -0.643589   0.043188
H  -4.815724  -0.193947   0.102606
H  -3.740817   1.328271  -0.082754
H  -2.828782  -1.604719   0.023004
H  -1.332280   1.139222  -0.027230
H  -0.278340  -1.701525   0.075340
H   0.720610  -0.209572   0.056953

