%chk=/home/boittier/MDCM/nms_sampling/butadiene_geom.xyz.dir/butadiene_454.chk
%nproc=8
%mem=16000MB
#p B2PLYPD3/Def2QZVP 

butadiene

0 1
C  -3.827721   0.229474  -0.012715
C  -2.714468  -0.508704   0.073677
C  -1.388433   0.063319   0.030128
C  -0.273365  -0.645186   0.012926
H  -4.794057  -0.213009  -0.010865
H  -3.788806   1.297116   0.009528
H  -2.838507  -1.594174   0.072240
H  -1.349385   1.147796   0.036692
H  -0.298867  -1.730276   0.036010
H   0.700099  -0.196019  -0.048122
