%chk=/home/boittier/MDCM/nms_sampling/butadiene_geom.xyz.dir/butadiene_2179.chk
%nproc=8
%mem=16000MB
#p B2PLYPD3/Def2QZVP 

butadiene

0 1
C  -3.837627   0.214180   0.047461
C  -2.734455  -0.457404  -0.017701
C  -1.386257   0.058256   0.014131
C  -0.257896  -0.655776   0.033995
H  -4.694327  -0.390074   0.248991
H  -3.963994   1.254481  -0.072584
H  -2.836285  -1.527666   0.007454
H  -1.189988   1.131798  -0.149772
H  -0.308476  -1.733198   0.150079
H   0.787109  -0.226212   0.209526

