%chk=/home/boittier/MDCM/nms_sampling/butadiene_geom.xyz.dir/butadiene_1217.chk
%nproc=8
%mem=16000MB
#p B2PLYPD3/Def2QZVP 

butadiene

0 1
C  -3.863130   0.213763   0.017267
C  -2.725636  -0.494662   0.049079
C  -1.381548   0.086552   0.024239
C  -0.249051  -0.668273   0.025948
H  -4.815306  -0.229198   0.046751
H  -3.836973   1.310194  -0.163567
H  -2.798905  -1.577639   0.044595
H  -1.291772   1.209579   0.028850
H  -0.176699  -1.748565  -0.017536
H   0.737492  -0.208606   0.008495
