%chk=/home/boittier/MDCM/nms_sampling/butadiene_geom.xyz.dir/butadiene_526.chk
%nproc=8
%mem=16000MB
#p B2PLYPD3/Def2QZVP 

butadiene

0 1
C  -3.823193   0.238784   0.032294
C  -2.722406  -0.511635   0.012954
C  -1.396582   0.048693   0.000603
C  -0.266550  -0.640238   0.050178
H  -4.785689  -0.222811   0.094811
H  -3.773118   1.295982  -0.007448
H  -2.793089  -1.589103   0.042027
H  -1.342510   1.137550  -0.027595
H  -0.316136  -1.714054   0.083849
H   0.708593  -0.158193  -0.004516

