%chk=/home/boittier/MDCM/nms_sampling/butadiene_geom.xyz.dir/butadiene_2282.chk
%nproc=8
%mem=16000MB
#p B2PLYPD3/Def2QZVP 

butadiene

0 1
C  -3.817748   0.239326   0.106877
C  -2.720080  -0.537262  -0.075788
C  -1.413820   0.037801  -0.046056
C  -0.258815  -0.621436   0.092145
H  -4.967376  -0.011532   0.189609
H  -3.541503   1.284382  -0.094879
H  -2.767708  -1.670252   0.087127
H  -1.332609   1.102944  -0.058987
H  -0.334895  -1.714352   0.137779
H   0.652018  -0.063828   0.157114
