%chk=/home/boittier/MDCM/nms_sampling/butadiene_geom.xyz.dir/butadiene_45.chk
%nproc=8
%mem=16000MB
#p B2PLYPD3/Def2QZVP 

butadiene

0 1
C  -3.836358   0.219322  -0.001711
C  -2.703429  -0.493162   0.060126
C  -1.389463   0.069648   0.041791
C  -0.277610  -0.654306   0.001438
H  -4.841577  -0.238032  -0.039447
H  -3.806932   1.308468  -0.036447
H  -2.762386  -1.583100   0.128527
H  -1.295233   1.145940   0.013775
H  -0.331677  -1.737090   0.055928
H   0.701781  -0.206281   0.007690
