%chk=/home/boittier/MDCM/nms_sampling/butadiene_geom.xyz.dir/butadiene_1747.chk
%nproc=8
%mem=16000MB
#p B2PLYPD3/Def2QZVP 

butadiene

0 1
C  -3.828694   0.227802  -0.002435
C  -2.729241  -0.515803   0.042095
C  -1.389998   0.046278   0.053791
C  -0.249483  -0.630996  -0.008582
H  -4.839200  -0.149206   0.056686
H  -3.755929   1.325435  -0.094685
H  -2.873181  -1.567115   0.214774
H  -1.389985   1.124377   0.062505
H  -0.297970  -1.709152   0.062583
H   0.713162  -0.184995   0.058334

