%chk=/home/boittier/MDCM/nms_sampling/butadiene_geom.xyz.dir/butadiene_656.chk
%nproc=8
%mem=16000MB
#p B2PLYPD3/Def2QZVP 

butadiene

0 1
C  -3.837977   0.216224   0.040562
C  -2.710337  -0.484915   0.005199
C  -1.386775   0.082182  -0.003119
C  -0.278320  -0.666482   0.055801
H  -4.802051  -0.256905   0.083250
H  -3.798995   1.283515   0.011767
H  -2.745164  -1.582248   0.047900
H  -1.322969   1.153503  -0.097138
H  -0.280046  -1.739480   0.054479
H   0.690678  -0.221000   0.044055

