%chk=/home/boittier/MDCM/nms_sampling/butadiene_geom.xyz.dir/butadiene_977.chk
%nproc=8
%mem=16000MB
#p B2PLYPD3/Def2QZVP 

butadiene

0 1
C  -3.832987   0.203981   0.041368
C  -2.711913  -0.498151   0.016530
C  -1.375788   0.094331  -0.018271
C  -0.281106  -0.657788   0.044075
H  -4.816596  -0.243215  -0.022338
H  -3.864133   1.321448   0.139482
H  -2.776566  -1.551108  -0.012182
H  -1.255963   1.194886  -0.100570
H  -0.432518  -1.763913   0.221669
H   0.748350  -0.266860   0.076265

