%chk=/home/boittier/MDCM/nms_sampling/butadiene_geom.xyz.dir/butadiene_2209.chk
%nproc=8
%mem=16000MB
#p B2PLYPD3/Def2QZVP 

butadiene

0 1
C  -3.829332   0.213700   0.037341
C  -2.738016  -0.524345  -0.022986
C  -1.378651   0.108779  -0.042981
C  -0.286232  -0.659753   0.073275
H  -4.777557  -0.241049   0.292168
H  -3.662986   1.358570   0.133930
H  -2.696587  -1.575735   0.065887
H  -1.256744   1.213560   0.061508
H  -0.339598  -1.794877   0.200737
H   0.718172  -0.210508   0.069570
