%chk=/home/boittier/MDCM/nms_sampling/butadiene_geom.xyz.dir/butadiene_999.chk
%nproc=8
%mem=16000MB
#p B2PLYPD3/Def2QZVP 

butadiene

0 1
C  -3.826027   0.214366  -0.018517
C  -2.694716  -0.480855   0.088307
C  -1.395571   0.092851   0.059304
C  -0.283479  -0.673443  -0.016716
H  -4.787734  -0.264341  -0.095680
H  -3.875992   1.265077  -0.011862
H  -2.762856  -1.570317   0.083839
H  -1.350565   1.133588  -0.059274
H  -0.359064  -1.753386   0.037499
H   0.704875  -0.243171   0.028476
