%chk=/home/boittier/MDCM/nms_sampling/butadiene_geom.xyz.dir/butadiene_1127.chk
%nproc=8
%mem=16000MB
#p B2PLYPD3/Def2QZVP 

butadiene

0 1
C  -3.832670   0.200911  -0.005585
C  -2.706273  -0.478869   0.070974
C  -1.381435   0.088234   0.047611
C  -0.287811  -0.672149   0.014429
H  -4.843309  -0.243157  -0.026589
H  -3.817533   1.311028  -0.071961
H  -2.780612  -1.566841  -0.000637
H  -1.260728   1.152953  -0.009952
H  -0.326774  -1.737410   0.041485
H   0.700142  -0.174486  -0.140604
