%chk=/home/boittier/MDCM/nms_sampling/butadiene_geom.xyz.dir/butadiene_59.chk
%nproc=8
%mem=16000MB
#p B2PLYPD3/Def2QZVP 

butadiene

0 1
C  -3.842573   0.226701   0.030545
C  -2.719151  -0.505982   0.020977
C  -1.381934   0.088564  -0.005194
C  -0.267701  -0.658036   0.047234
H  -4.800753  -0.278324   0.034069
H  -3.813823   1.294592   0.007370
H  -2.746661  -1.610649   0.124347
H  -1.314861   1.167992  -0.009753
H  -0.342835  -1.749982   0.016335
H   0.742748  -0.240633   0.054390

