%chk=/home/boittier/MDCM/nms_sampling/butadiene_geom.xyz.dir/butadiene_1649.chk
%nproc=8
%mem=16000MB
#p B2PLYPD3/Def2QZVP 

butadiene

0 1
C  -3.851170   0.234407  -0.014402
C  -2.735196  -0.521723   0.052828
C  -1.390280   0.066886   0.057495
C  -0.242088  -0.652555   0.009881
H  -4.864438  -0.201086   0.044243
H  -3.807010   1.314963  -0.096272
H  -2.763139  -1.552816   0.255125
H  -1.262983   1.152579   0.072906
H  -0.198085  -1.695329  -0.091853
H   0.720955  -0.156521  -0.071108

