%chk=/home/boittier/MDCM/nms_sampling/butadiene_geom.xyz.dir/butadiene_2112.chk
%nproc=8
%mem=16000MB
#p B2PLYPD3/Def2QZVP 

butadiene

0 1
C  -3.815224   0.187772  -0.014173
C  -2.719724  -0.470216   0.081725
C  -1.383414   0.128434   0.034323
C  -0.301624  -0.695983  -0.007189
H  -4.764660  -0.305228   0.050834
H  -3.686867   1.264224  -0.072608
H  -2.782823  -1.554199   0.105388
H  -1.262161   1.137453  -0.003256
H  -0.392344  -1.758908  -0.050948
H   0.697737  -0.153469   0.196236

