%chk=/home/boittier/MDCM/nms_sampling/butadiene_geom.xyz.dir/butadiene_219.chk
%nproc=8
%mem=16000MB
#p B2PLYPD3/Def2QZVP 

butadiene

0 1
C  -3.838740   0.228377   0.004326
C  -2.723794  -0.502932   0.045814
C  -1.394280   0.066122   0.035306
C  -0.254524  -0.655605   0.008897
H  -4.825013  -0.222787   0.009964
H  -3.805423   1.313586  -0.042867
H  -2.798494  -1.578003   0.150736
H  -1.315345   1.134454   0.032481
H  -0.204628  -1.722387   0.057923
H   0.674763  -0.168581   0.018300
