%chk=/home/boittier/MDCM/nms_sampling/butadiene_geom.xyz.dir/butadiene_2790.chk
%nproc=8
%mem=16000MB
#p B2PLYPD3/Def2QZVP 

butadiene

0 1
C  -3.799216   0.249426  -0.047276
C  -2.704726  -0.521903   0.065196
C  -1.414273   0.032113   0.103777
C  -0.277964  -0.641687  -0.027434
H  -4.859086  -0.150522  -0.004756
H  -3.635989   1.333084   0.053223
H  -2.862548  -1.654995   0.274411
H  -1.437678   1.098351   0.010593
H  -0.229849  -1.635286   0.073996
H   0.564193  -0.060290  -0.173207

