%chk=/home/boittier/MDCM/nms_sampling/butadiene_geom.xyz.dir/butadiene_672.chk
%nproc=8
%mem=16000MB
#p B2PLYPD3/Def2QZVP 

butadiene

0 1
C  -3.836122   0.211543   0.003884
C  -2.713135  -0.487014   0.064855
C  -1.389577   0.080573   0.028889
C  -0.276098  -0.663491   0.012495
H  -4.794403  -0.253104   0.012973
H  -3.790150   1.304289  -0.127893
H  -2.722581  -1.543578   0.087966
H  -1.287721   1.160101   0.045134
H  -0.344562  -1.752513  -0.029391
H   0.704352  -0.210493   0.045425
