%chk=/home/boittier/MDCM/nms_sampling/butadiene_geom.xyz.dir/butadiene_450.chk
%nproc=8
%mem=16000MB
#p B2PLYPD3/Def2QZVP 

butadiene

0 1
C  -3.842148   0.215258   0.013598
C  -2.704974  -0.485181   0.041787
C  -1.381331   0.077701   0.039948
C  -0.281216  -0.667927   0.015861
H  -4.821435  -0.253040  -0.045108
H  -3.860182   1.300114  -0.044205
H  -2.718289  -1.567193   0.088559
H  -1.306091   1.177507  -0.024067
H  -0.309230  -1.735568   0.088540
H   0.710408  -0.203852  -0.065672

