%chk=/home/boittier/MDCM/nms_sampling/butadiene_geom.xyz.dir/butadiene_1686.chk
%nproc=8
%mem=16000MB
#p B2PLYPD3/Def2QZVP 

butadiene

0 1
C  -3.859026   0.238343   0.025951
C  -2.728293  -0.524995   0.022572
C  -1.370476   0.062504  -0.021860
C  -0.244229  -0.641069   0.054131
H  -4.852968  -0.237927   0.188517
H  -3.825145   1.355837   0.038394
H  -2.788720  -1.598568  -0.008156
H  -1.321281   1.137879  -0.046470
H  -0.294967  -1.744003   0.051257
H   0.695693  -0.161919   0.143003

