%chk=/home/boittier/MDCM/nms_sampling/butadiene_geom.xyz.dir/butadiene_89.chk
%nproc=8
%mem=16000MB
#p B2PLYPD3/Def2QZVP 

butadiene

0 1
C  -3.826718   0.235111   0.011392
C  -2.727510  -0.514566   0.053527
C  -1.391535   0.060002   0.026927
C  -0.264853  -0.644391   0.016310
H  -4.793345  -0.248723  -0.041893
H  -3.789212   1.313083  -0.078354
H  -2.803051  -1.575437   0.102846
H  -1.306069   1.150180   0.044621
H  -0.298620  -1.710248   0.040013
H   0.715429  -0.179168  -0.016079

