%chk=/home/boittier/MDCM/nms_sampling/butadiene_geom.xyz.dir/butadiene_285.chk
%nproc=8
%mem=16000MB
#p B2PLYPD3/Def2QZVP 

butadiene

0 1
C  -3.837272   0.216822  -0.002523
C  -2.717119  -0.491568   0.057953
C  -1.382893   0.080299   0.034437
C  -0.278148  -0.661631   0.021123
H  -4.805596  -0.288355   0.064282
H  -3.794799   1.301301  -0.086034
H  -2.749891  -1.555958   0.069712
H  -1.278658   1.178319   0.025817
H  -0.312529  -1.747700  -0.016853
H   0.714578  -0.211663  -0.040934
