%chk=/home/boittier/MDCM/nms_sampling/butadiene_geom.xyz.dir/butadiene_204.chk
%nproc=8
%mem=16000MB
#p B2PLYPD3/Def2QZVP 

butadiene

0 1
C  -3.825885   0.237116   0.013946
C  -2.712916  -0.515551   0.031775
C  -1.396133   0.057043   0.018364
C  -0.270313  -0.641070   0.036868
H  -4.788252  -0.211478   0.077023
H  -3.790554   1.313931   0.047189
H  -2.837152  -1.606033  -0.006378
H  -1.329911   1.113886  -0.085339
H  -0.299732  -1.721221   0.109515
H   0.695800  -0.167475  -0.038490
