%chk=/home/boittier/MDCM/nms_sampling/butadiene_geom.xyz.dir/butadiene_1247.chk
%nproc=8
%mem=16000MB
#p B2PLYPD3/Def2QZVP 

butadiene

0 1
C  -3.821416   0.231603   0.033146
C  -2.713762  -0.508038   0.021734
C  -1.400808   0.050046  -0.007081
C  -0.269856  -0.640476   0.058119
H  -4.808527  -0.227100  -0.046155
H  -3.765743   1.352281   0.104960
H  -2.838960  -1.575515   0.074008
H  -1.404762   1.147563  -0.100540
H  -0.261671  -1.710844   0.042124
H   0.744961  -0.206595  -0.027754

