%chk=/home/boittier/MDCM/nms_sampling/butadiene_geom.xyz.dir/butadiene_1948.chk
%nproc=8
%mem=16000MB
#p B2PLYPD3/Def2QZVP 

butadiene

0 1
C  -3.856591   0.224292  -0.011325
C  -2.737422  -0.505284   0.038411
C  -1.360149   0.089314   0.061811
C  -0.257353  -0.671636   0.022064
H  -4.869614  -0.275076   0.122901
H  -3.855465   1.300575  -0.206042
H  -2.652560  -1.542721   0.345445
H  -1.283617   1.191120   0.139399
H  -0.283398  -1.789720  -0.216016
H   0.663034  -0.127202  -0.104745

