%chk=/home/boittier/MDCM/nms_sampling/butadiene_geom.xyz.dir/butadiene_2718.chk
%nproc=8
%mem=16000MB
#p B2PLYPD3/Def2QZVP 

butadiene

0 1
C  -3.800517   0.276919   0.108578
C  -2.723937  -0.557390  -0.071264
C  -1.423250   0.032697  -0.032155
C  -0.261194  -0.627223   0.084757
H  -4.759377  -0.226376   0.210440
H  -3.781428   1.391995  -0.158277
H  -2.755960  -1.613630   0.031459
H  -1.397635   1.148120  -0.149126
H  -0.226329  -1.736514   0.097087
H   0.643617  -0.107096   0.217587
