%chk=/home/boittier/MDCM/nms_sampling/butadiene_geom.xyz.dir/butadiene_2506.chk
%nproc=8
%mem=16000MB
#p B2PLYPD3/Def2QZVP 

butadiene

0 1
C  -3.858497   0.251698   0.059572
C  -2.753840  -0.524174  -0.015069
C  -1.367523   0.040913  -0.067366
C  -0.221611  -0.625157   0.095082
H  -4.849839  -0.246116   0.072957
H  -3.748415   1.345593   0.221650
H  -2.858489  -1.633209   0.076526
H  -1.525366   1.064948  -0.112547
H  -0.209475  -1.739854   0.057227
H   0.799553  -0.150742   0.144817
