%chk=/home/boittier/MDCM/nms_sampling/butadiene_geom.xyz.dir/butadiene_2678.chk
%nproc=8
%mem=16000MB
#p B2PLYPD3/Def2QZVP 

butadiene

0 1
C  -3.829674   0.207208   0.064390
C  -2.698055  -0.480492  -0.007213
C  -1.395313   0.081923  -0.056529
C  -0.287607  -0.665333   0.091740
H  -4.794102  -0.307023  -0.020024
H  -3.690689   1.320781   0.349210
H  -2.809983  -1.494095  -0.148283
H  -1.330481   1.155437  -0.349477
H  -0.313594  -1.759373   0.210248
H   0.648755  -0.229503   0.095202
