%chk=/home/boittier/MDCM/nms_sampling/butadiene_geom.xyz.dir/butadiene_2571.chk
%nproc=8
%mem=16000MB
#p B2PLYPD3/Def2QZVP 

butadiene

0 1
C  -3.854936   0.233486  -0.029183
C  -2.742171  -0.506286   0.102822
C  -1.362219   0.033100   0.021534
C  -0.258358  -0.645205   0.008129
H  -4.822103  -0.196356   0.006533
H  -3.751097   1.368311  -0.192610
H  -2.861778  -1.597269   0.263396
H  -1.287994   1.081179   0.328147
H  -0.095454  -1.722949  -0.200507
H   0.609787   0.042289  -0.017559
