%chk=/home/boittier/MDCM/nms_sampling/butadiene_geom.xyz.dir/butadiene_1846.chk
%nproc=8
%mem=16000MB
#p B2PLYPD3/Def2QZVP 

butadiene

0 1
C  -3.856048   0.208698   0.031975
C  -2.731505  -0.483673   0.000053
C  -1.369912   0.086138  -0.001907
C  -0.245820  -0.665436   0.036910
H  -4.791022  -0.319456   0.164971
H  -3.841980   1.299831  -0.011248
H  -2.855890  -1.562075   0.132809
H  -1.309857   1.203210   0.032699
H  -0.339414  -1.751567   0.122568
H   0.759430  -0.212466   0.119447

