%chk=/home/boittier/MDCM/nms_sampling/butadiene_geom.xyz.dir/butadiene_981.chk
%nproc=8
%mem=16000MB
#p B2PLYPD3/Def2QZVP 

butadiene

0 1
C  -3.844315   0.232750   0.050089
C  -2.725389  -0.496620   0.010046
C  -1.396471   0.062425  -0.034649
C  -0.247296  -0.663465   0.055300
H  -4.790752  -0.229831   0.014513
H  -3.835591   1.290053   0.119736
H  -2.818724  -1.596491  -0.052644
H  -1.341627   1.129865  -0.061132
H  -0.164681  -1.692675   0.242468
H   0.701368  -0.133840   0.075257
