%chk=/home/boittier/MDCM/nms_sampling/butadiene_geom.xyz.dir/butadiene_2661.chk
%nproc=8
%mem=16000MB
#p B2PLYPD3/Def2QZVP 

butadiene

0 1
C  -3.823856   0.191156   0.018876
C  -2.681993  -0.461789   0.014335
C  -1.382034   0.109774  -0.000538
C  -0.328373  -0.677473   0.057232
H  -4.780436  -0.295209   0.113428
H  -3.868679   1.250157   0.243060
H  -2.711866  -1.529908  -0.061694
H  -1.122816   1.118942  -0.247797
H  -0.387991  -1.786575   0.150828
H   0.633978  -0.276217   0.005765

