%chk=/home/boittier/MDCM/nms_sampling/butadiene_geom.xyz.dir/butadiene_390.chk
%nproc=8
%mem=16000MB
#p B2PLYPD3/Def2QZVP 

butadiene

0 1
C  -3.840273   0.221281  -0.003429
C  -2.729949  -0.492505   0.057218
C  -1.387536   0.056406   0.045860
C  -0.256452  -0.653029   0.015178
H  -4.810233  -0.240726   0.011830
H  -3.767528   1.330452  -0.054541
H  -2.786276  -1.557441   0.090074
H  -1.319096   1.142652  -0.023927
H  -0.244361  -1.730848  -0.003119
H   0.688935  -0.140361  -0.059062

