%chk=/home/boittier/MDCM/nms_sampling/butadiene_geom.xyz.dir/butadiene_1012.chk
%nproc=8
%mem=16000MB
#p B2PLYPD3/Def2QZVP 

butadiene

0 1
C  -3.823453   0.240779   0.055544
C  -2.701524  -0.510423   0.001320
C  -1.397845   0.040262  -0.032949
C  -0.277957  -0.633670   0.074177
H  -4.826692  -0.240255   0.105766
H  -3.825263   1.318104  -0.011293
H  -2.795280  -1.569810   0.021569
H  -1.331777   1.136627  -0.088801
H  -0.323864  -1.731010  -0.005700
H   0.702439  -0.188820   0.130257

