%chk=/home/boittier/MDCM/nms_sampling/butadiene_geom.xyz.dir/butadiene_375.chk
%nproc=8
%mem=16000MB
#p B2PLYPD3/Def2QZVP 

butadiene

0 1
C  -3.850704   0.213828   0.038273
C  -2.717270  -0.485528   0.016357
C  -1.380288   0.082091  -0.011583
C  -0.264692  -0.664897   0.052148
H  -4.827619  -0.254904   0.073400
H  -3.824659   1.299708  -0.004319
H  -2.761091  -1.580938   0.055296
H  -1.332906   1.154650  -0.060612
H  -0.267993  -1.743368   0.027291
H   0.750701  -0.220195   0.102161

