%chk=/home/boittier/MDCM/nms_sampling/butadiene_geom.xyz.dir/butadiene_12.chk
%nproc=8
%mem=16000MB
#p B2PLYPD3/Def2QZVP 

butadiene

0 1
C  -3.830179   0.233500  -0.001871
C  -2.720674  -0.526061   0.065764
C  -1.389928   0.060987   0.029543
C  -0.264579  -0.638808   0.011247
H  -4.854167  -0.186227  -0.036228
H  -3.774924   1.335464  -0.021982
H  -2.816355  -1.600576   0.074482
H  -1.307997   1.149899   0.038627
H  -0.316781  -1.716180   0.065680
H   0.725534  -0.167387  -0.033945

