%chk=/home/boittier/MDCM/nms_sampling/butadiene_geom.xyz.dir/butadiene_234.chk
%nproc=8
%mem=16000MB
#p B2PLYPD3/Def2QZVP 

butadiene

0 1
C  -3.841681   0.232833   0.040413
C  -2.722499  -0.511795   0.012771
C  -1.384702   0.069054   0.001332
C  -0.253664  -0.652105   0.046666
H  -4.812026  -0.220095  -0.023569
H  -3.837418   1.306639   0.049427
H  -2.825618  -1.605397   0.042725
H  -1.351571   1.130161  -0.087761
H  -0.283213  -1.727721   0.131234
H   0.722595  -0.161596  -0.010601

