%chk=/home/boittier/MDCM/nms_sampling/butadiene_geom.xyz.dir/butadiene_13.chk
%nproc=8
%mem=16000MB
#p B2PLYPD3/Def2QZVP 

butadiene

0 1
C  -3.836906   0.237085   0.028282
C  -2.723898  -0.511929   0.013913
C  -1.387787   0.064904   0.001279
C  -0.257770  -0.650890   0.047509
H  -4.806834  -0.252810   0.053123
H  -3.796299   1.318767   0.104825
H  -2.821096  -1.617964   0.038581
H  -1.365211   1.155296  -0.104396
H  -0.249691  -1.723860   0.125561
H   0.704338  -0.169088   0.008242

