%chk=/home/boittier/MDCM/nms_sampling/butadiene_geom.xyz.dir/butadiene_1171.chk
%nproc=8
%mem=16000MB
#p B2PLYPD3/Def2QZVP 

butadiene

0 1
C  -3.841874   0.216141  -0.000008
C  -2.719866  -0.499689   0.058944
C  -1.369778   0.107774   0.014443
C  -0.266971  -0.671554   0.029164
H  -4.816277  -0.308518  -0.001020
H  -3.870800   1.276445  -0.009087
H  -2.778386  -1.549640   0.092639
H  -1.357046   1.189001   0.089543
H  -0.374535  -1.771647   0.031226
H   0.754796  -0.261677  -0.081050
