%chk=/home/boittier/MDCM/nms_sampling/butadiene_geom.xyz.dir/butadiene_1877.chk
%nproc=8
%mem=16000MB
#p B2PLYPD3/Def2QZVP 

butadiene

0 1
C  -3.854910   0.241245   0.003221
C  -2.727944  -0.517000   0.050180
C  -1.393647   0.046066   0.016029
C  -0.244577  -0.640085   0.020410
H  -4.856763  -0.191801   0.070323
H  -3.777181   1.310672  -0.006342
H  -2.758997  -1.565562   0.139391
H  -1.320109   1.121378  -0.025919
H  -0.188655  -1.713428  -0.043931
H   0.752675  -0.147450   0.148020
