%chk=/home/boittier/MDCM/nms_sampling/butadiene_geom.xyz.dir/butadiene_1721.chk
%nproc=8
%mem=16000MB
#p B2PLYPD3/Def2QZVP 

butadiene

0 1
C  -3.847222   0.220662   0.053234
C  -2.736747  -0.494065   0.019083
C  -1.377247   0.048447  -0.017388
C  -0.241104  -0.646812   0.054028
H  -4.849276  -0.207166  -0.039066
H  -3.761609   1.317450   0.052332
H  -2.808898  -1.565348  -0.112908
H  -1.358640   1.163360  -0.143571
H  -0.265271  -1.730106   0.189125
H   0.655490  -0.137686   0.029665

