%chk=/home/boittier/MDCM/nms_sampling/butadiene_geom.xyz.dir/butadiene_2620.chk
%nproc=8
%mem=16000MB
#p B2PLYPD3/Def2QZVP 

butadiene

0 1
C  -3.841135   0.177720   0.031345
C  -2.702703  -0.454165   0.013361
C  -1.369175   0.117188  -0.017704
C  -0.307855  -0.680233   0.064823
H  -4.807009  -0.301329  -0.053457
H  -3.726799   1.289508   0.331599
H  -2.711145  -1.560406  -0.012833
H  -1.312184   1.139174  -0.246656
H  -0.454612  -1.788256   0.180296
H   0.828507  -0.276156  -0.024327

