%chk=/home/boittier/MDCM/nms_sampling/butadiene_geom.xyz.dir/butadiene_2633.chk
%nproc=8
%mem=16000MB
#p B2PLYPD3/Def2QZVP 

butadiene

0 1
C  -3.880178   0.194357  -0.016737
C  -2.727388  -0.456437   0.071480
C  -1.356239   0.075644   0.069216
C  -0.219117  -0.665881  -0.006463
H  -4.783066  -0.340731   0.125803
H  -3.901407   1.311752  -0.356085
H  -2.860542  -1.527871   0.186175
H  -1.369088   1.192339   0.221580
H  -0.454120  -1.768122  -0.122287
H   0.732863  -0.235856  -0.060957

