%chk=/home/boittier/MDCM/nms_sampling/butadiene_geom.xyz.dir/butadiene_504.chk
%nproc=8
%mem=16000MB
#p B2PLYPD3/Def2QZVP 

butadiene

0 1
C  -3.847774   0.222354  -0.008483
C  -2.726840  -0.500341   0.058933
C  -1.376660   0.072572   0.043966
C  -0.259732  -0.649417   0.013498
H  -4.820844  -0.259116   0.017601
H  -3.830763   1.280289  -0.009126
H  -2.800488  -1.567059   0.081418
H  -1.262220   1.156191  -0.013516
H  -0.302513  -1.737665   0.039156
H   0.736827  -0.220764  -0.072652

