%chk=/home/boittier/MDCM/nms_sampling/butadiene_geom.xyz.dir/butadiene_1202.chk
%nproc=8
%mem=16000MB
#p B2PLYPD3/Def2QZVP 

butadiene

0 1
C  -3.837419   0.237772   0.021822
C  -2.727192  -0.516328   0.025556
C  -1.384653   0.047229   0.041472
C  -0.257493  -0.636568   0.021470
H  -4.825428  -0.175583  -0.051854
H  -3.804302   1.278067  -0.047876
H  -2.821664  -1.603896   0.143519
H  -1.266637   1.138948  -0.024165
H  -0.264521  -1.731439   0.083550
H   0.647902  -0.123421  -0.088349
