%chk=/home/boittier/MDCM/nms_sampling/butadiene_geom.xyz.dir/butadiene_1166.chk
%nproc=8
%mem=16000MB
#p B2PLYPD3/Def2QZVP 

butadiene

0 1
C  -3.832804   0.199027   0.050687
C  -2.699727  -0.474360  -0.009896
C  -1.384558   0.109420  -0.021499
C  -0.289086  -0.684615   0.055443
H  -4.822784  -0.232498   0.186145
H  -3.856434   1.247213  -0.027585
H  -2.753013  -1.542379   0.007949
H  -1.301739   1.152727   0.002462
H  -0.310379  -1.784838   0.170181
H   0.679327  -0.221664   0.104652

