%chk=/home/boittier/MDCM/nms_sampling/butadiene_geom.xyz.dir/butadiene_516.chk
%nproc=8
%mem=16000MB
#p B2PLYPD3/Def2QZVP 

butadiene

0 1
C  -3.846377   0.217235   0.001272
C  -2.712173  -0.487305   0.065902
C  -1.383454   0.084970   0.026006
C  -0.267080  -0.668076   0.024142
H  -4.799118  -0.277570  -0.032185
H  -3.844854   1.290166  -0.023660
H  -2.797035  -1.574339   0.034849
H  -1.302552   1.156385  -0.008331
H  -0.258900  -1.733626   0.013990
H   0.692205  -0.222124  -0.063161
