%chk=/home/boittier/MDCM/nms_sampling/butadiene_geom.xyz.dir/butadiene_2648.chk
%nproc=8
%mem=16000MB
#p B2PLYPD3/Def2QZVP 

butadiene

0 1
C  -3.864962   0.250832  -0.051315
C  -2.746196  -0.530452   0.117750
C  -1.385878   0.039284   0.088594
C  -0.231840  -0.636224  -0.054240
H  -4.898544  -0.155076  -0.128066
H  -3.717545   1.303646  -0.068103
H  -2.845715  -1.645757   0.113489
H  -1.315452   1.168218   0.201108
H   0.000471  -1.701218   0.202796
H   0.720686  -0.084443  -0.167835
