%chk=/home/boittier/MDCM/nms_sampling/butadiene_geom.xyz.dir/butadiene_2185.chk
%nproc=8
%mem=16000MB
#p B2PLYPD3/Def2QZVP 

butadiene

0 1
C  -3.820469   0.190023  -0.043588
C  -2.687734  -0.454291   0.095396
C  -1.399304   0.127949   0.101211
C  -0.309315  -0.704340  -0.047014
H  -4.776069  -0.377731   0.163647
H  -3.761200   1.256073  -0.346997
H  -2.782714  -1.540620   0.174053
H  -1.239175   1.174954   0.169518
H  -0.330715  -1.717730  -0.081252
H   0.667281  -0.267039   0.052713

