%chk=/home/boittier/MDCM/nms_sampling/butadiene_geom.xyz.dir/butadiene_2167.chk
%nproc=8
%mem=16000MB
#p B2PLYPD3/Def2QZVP 

butadiene

0 1
C  -3.796773   0.248283  -0.049118
C  -2.736865  -0.525245   0.126231
C  -1.385653   0.045349   0.073894
C  -0.270994  -0.643787  -0.021573
H  -4.737634  -0.243047  -0.032792
H  -3.771624   1.316273  -0.205888
H  -2.941769  -1.649941   0.234212
H  -1.436427   1.183704   0.098396
H  -0.317077  -1.715419  -0.294048
H   0.669267  -0.029667   0.040117

