%chk=/home/boittier/MDCM/nms_sampling/butadiene_geom.xyz.dir/butadiene_1182.chk
%nproc=8
%mem=16000MB
#p B2PLYPD3/Def2QZVP 

butadiene

0 1
C  -3.838598   0.206297  -0.016968
C  -2.721803  -0.487629   0.066751
C  -1.381761   0.113866   0.038176
C  -0.274128  -0.682995   0.009049
H  -4.813510  -0.251380   0.050554
H  -3.768519   1.268924   0.008796
H  -2.712174  -1.599017   0.154515
H  -1.338869   1.199122  -0.023947
H  -0.310918  -1.769261  -0.060819
H   0.714918  -0.225158   0.065257

