%chk=/home/boittier/MDCM/nms_sampling/butadiene_geom.xyz.dir/butadiene_1368.chk
%nproc=8
%mem=16000MB
#p B2PLYPD3/Def2QZVP 

butadiene

0 1
C  -3.858858   0.213738   0.012991
C  -2.707794  -0.480306   0.062444
C  -1.375087   0.087985   0.020537
C  -0.257725  -0.670898   0.019544
H  -4.758221  -0.270640   0.013558
H  -3.961993   1.277040  -0.167810
H  -2.775439  -1.584185   0.071050
H  -1.318636   1.165333   0.042151
H  -0.359854  -1.762843  -0.062125
H   0.738341  -0.231416   0.071654
