%chk=/home/boittier/MDCM/nms_sampling/butadiene_geom.xyz.dir/butadiene_2712.chk
%nproc=8
%mem=16000MB
#p B2PLYPD3/Def2QZVP 

butadiene

0 1
C  -3.855596   0.208819   0.080622
C  -2.734170  -0.468336  -0.051009
C  -1.374820   0.076037  -0.066791
C  -0.248123  -0.651108   0.116962
H  -4.853844  -0.365766   0.248951
H  -3.947472   1.271159   0.014956
H  -2.731759  -1.522537   0.002921
H  -1.263185   1.184154   0.017100
H  -0.323688  -1.765991   0.105737
H   0.872978  -0.360327  -0.009451

