%chk=/home/boittier/MDCM/nms_sampling/butadiene_geom.xyz.dir/butadiene_1442.chk
%nproc=8
%mem=16000MB
#p B2PLYPD3/Def2QZVP 

butadiene

0 1
C  -3.868775   0.194580  -0.024261
C  -2.723971  -0.456901   0.092897
C  -1.370963   0.093241   0.052660
C  -0.254903  -0.679294  -0.006721
H  -4.808465  -0.326695  -0.053453
H  -3.784868   1.287897  -0.009415
H  -2.770130  -1.566934   0.065537
H  -1.283108   1.164528  -0.034422
H  -0.315574  -1.763893  -0.003342
H   0.761268  -0.192982  -0.005750
