%chk=/home/boittier/MDCM/nms_sampling/butadiene_geom.xyz.dir/butadiene_1178.chk
%nproc=8
%mem=16000MB
#p B2PLYPD3/Def2QZVP 

butadiene

0 1
C  -3.828878   0.250055  -0.017349
C  -2.715053  -0.528392   0.066150
C  -1.386167   0.046228   0.065670
C  -0.271728  -0.637975  -0.000048
H  -4.796443  -0.199149  -0.011665
H  -3.798598   1.319950  -0.012032
H  -2.743740  -1.614070   0.083300
H  -1.417295   1.156653  -0.046947
H  -0.350302  -1.716804   0.053009
H   0.716351  -0.146258  -0.108486
