%chk=/home/boittier/MDCM/nms_sampling/butadiene_geom.xyz.dir/butadiene_1904.chk
%nproc=8
%mem=16000MB
#p B2PLYPD3/Def2QZVP 

butadiene

0 1
C  -3.870380   0.217113  -0.003474
C  -2.725092  -0.485429   0.061884
C  -1.367721   0.084813   0.042919
C  -0.254393  -0.663385  -0.007469
H  -4.750106  -0.322256  -0.006146
H  -3.886669   1.295212  -0.148978
H  -2.702233  -1.522154   0.227064
H  -1.310215   1.152504   0.138837
H  -0.331266  -1.751124  -0.008308
H   0.782771  -0.278087   0.062101
