%chk=/home/boittier/MDCM/nms_sampling/butadiene_geom.xyz.dir/butadiene_1197.chk
%nproc=8
%mem=16000MB
#p B2PLYPD3/Def2QZVP 

butadiene

0 1
C  -3.861257   0.205424   0.007358
C  -2.726216  -0.479169   0.046384
C  -1.362040   0.103330   0.060437
C  -0.252567  -0.682530   0.002213
H  -4.846174  -0.307220   0.053308
H  -3.877337   1.303508  -0.233082
H  -2.780144  -1.577235   0.163860
H  -1.312867   1.168823   0.021197
H  -0.292220  -1.758064  -0.065925
H   0.704297  -0.187249   0.031179
