%chk=/home/boittier/MDCM/nms_sampling/butadiene_geom.xyz.dir/butadiene_633.chk
%nproc=8
%mem=16000MB
#p B2PLYPD3/Def2QZVP 

butadiene

0 1
C  -3.839785   0.206268   0.013497
C  -2.714908  -0.488652   0.038766
C  -1.391129   0.084809   0.035549
C  -0.268081  -0.661063   0.017426
H  -4.830793  -0.220676  -0.011907
H  -3.761879   1.318368  -0.048495
H  -2.769950  -1.572951   0.105766
H  -1.303383   1.155132  -0.006320
H  -0.316088  -1.744524   0.075697
H   0.733235  -0.229077  -0.036408

