%chk=/home/boittier/MDCM/nms_sampling/butadiene_geom.xyz.dir/butadiene_1562.chk
%nproc=8
%mem=16000MB
#p B2PLYPD3/Def2QZVP 

butadiene

0 1
C  -3.827314   0.214896   0.006072
C  -2.710843  -0.489128   0.060525
C  -1.390722   0.099292   0.031948
C  -0.278132  -0.668883   0.004975
H  -4.760581  -0.303470  -0.049027
H  -3.894596   1.283043  -0.151241
H  -2.806232  -1.556088   0.222750
H  -1.324418   1.185591   0.118630
H  -0.297114  -1.799554  -0.055797
H   0.747296  -0.270375   0.057354
