%chk=/home/boittier/MDCM/nms_sampling/butadiene_geom.xyz.dir/butadiene_2221.chk
%nproc=8
%mem=16000MB
#p B2PLYPD3/Def2QZVP 

butadiene

0 1
C  -3.861660   0.258123  -0.063531
C  -2.766773  -0.545304   0.110375
C  -1.390351   0.049379   0.099905
C  -0.215031  -0.636682  -0.021493
H  -4.790259  -0.196851   0.056282
H  -3.724309   1.312438  -0.055131
H  -2.761142  -1.642691   0.031141
H  -1.229885   1.129058   0.031885
H  -0.195816  -1.652465   0.014256
H   0.726720  -0.079813  -0.246042
