%chk=/home/boittier/MDCM/nms_sampling/butadiene_geom.xyz.dir/butadiene_413.chk
%nproc=8
%mem=16000MB
#p B2PLYPD3/Def2QZVP 

butadiene

0 1
C  -3.836141   0.225798   0.012245
C  -2.720418  -0.496507   0.051760
C  -1.380378   0.068982   0.030434
C  -0.266169  -0.653070   0.015636
H  -4.777445  -0.285799  -0.017863
H  -3.851241   1.298793  -0.091111
H  -2.797455  -1.572466   0.104451
H  -1.293502   1.139211  -0.004518
H  -0.340530  -1.734361  -0.000886
H   0.683427  -0.198320   0.035969

