%chk=/home/boittier/MDCM/nms_sampling/butadiene_geom.xyz.dir/butadiene_265.chk
%nproc=8
%mem=16000MB
#p B2PLYPD3/Def2QZVP 

butadiene

0 1
C  -3.844148   0.223359   0.006436
C  -2.717667  -0.506026   0.052841
C  -1.384868   0.062440   0.021059
C  -0.259354  -0.647206   0.028484
H  -4.860797  -0.169489   0.026090
H  -3.749963   1.295572  -0.034919
H  -2.808688  -1.589010   0.086227
H  -1.336545   1.144797  -0.024347
H  -0.281427  -1.723449  -0.036676
H   0.689094  -0.172623   0.020747
