%chk=/home/boittier/MDCM/nms_sampling/butadiene_geom.xyz.dir/butadiene_222.chk
%nproc=8
%mem=16000MB
#p B2PLYPD3/Def2QZVP 

butadiene

0 1
C  -3.839936   0.211682  -0.003317
C  -2.710360  -0.495901   0.064893
C  -1.383173   0.087553   0.025714
C  -0.268632  -0.662010   0.021012
H  -4.811746  -0.239710   0.060150
H  -3.848978   1.305126  -0.101676
H  -2.797828  -1.552833   0.094029
H  -1.306772   1.171190   0.057386
H  -0.359545  -1.749731  -0.062025
H   0.728870  -0.233749   0.012427

