%chk=/home/boittier/MDCM/nms_sampling/butadiene_geom.xyz.dir/butadiene_51.chk
%nproc=8
%mem=16000MB
#p B2PLYPD3/Def2QZVP 

butadiene

0 1
C  -3.840863   0.209981   0.006474
C  -2.709338  -0.479082   0.058651
C  -1.376508   0.077371   0.020064
C  -0.279429  -0.668081   0.014733
H  -4.799877  -0.275243  -0.001138
H  -3.818793   1.295139  -0.096458
H  -2.764615  -1.557138   0.127726
H  -1.317872   1.183772   0.094290
H  -0.342293  -1.738516   0.006060
H   0.693049  -0.192444   0.036793
