%chk=/home/boittier/MDCM/nms_sampling/butadiene_geom.xyz.dir/butadiene_2639.chk
%nproc=8
%mem=16000MB
#p B2PLYPD3/Def2QZVP 

butadiene

0 1
C  -3.849746   0.199465   0.038006
C  -2.702681  -0.511189   0.000600
C  -1.357490   0.148647  -0.012924
C  -0.301793  -0.694142   0.068123
H  -4.825650  -0.249509   0.044767
H  -3.834233   1.342835   0.317193
H  -2.608074  -1.555929  -0.098750
H  -1.242221   1.172632  -0.365600
H  -0.450417  -1.752095   0.186378
H   0.673058  -0.260475   0.044844
