%chk=/home/boittier/MDCM/nms_sampling/butadiene_geom.xyz.dir/butadiene_693.chk
%nproc=8
%mem=16000MB
#p B2PLYPD3/Def2QZVP 

butadiene

0 1
C  -3.844663   0.224250   0.033367
C  -2.723807  -0.488615   0.003414
C  -1.384985   0.067358  -0.002831
C  -0.257018  -0.654520   0.052759
H  -4.783380  -0.271459   0.090351
H  -3.863757   1.277711   0.081838
H  -2.753206  -1.562735   0.062085
H  -1.319778   1.151466  -0.080064
H  -0.293164  -1.750483   0.116355
H   0.727359  -0.227208   0.016364
