%chk=/home/boittier/MDCM/nms_sampling/butadiene_geom.xyz.dir/butadiene_2022.chk
%nproc=8
%mem=16000MB
#p B2PLYPD3/Def2QZVP 

butadiene

0 1
C  -3.865257   0.201093   0.014378
C  -2.692221  -0.450743   0.084695
C  -1.374282   0.071044   0.017257
C  -0.272600  -0.655726   0.010702
H  -4.770612  -0.329337  -0.250486
H  -3.945516   1.250969  -0.054989
H  -2.769488  -1.513252   0.005819
H  -1.216243   1.080465   0.081993
H  -0.429296  -1.777220   0.126712
H   0.754855  -0.291961  -0.111870

