%chk=/home/boittier/MDCM/nms_sampling/butadiene_geom.xyz.dir/butadiene_1593.chk
%nproc=8
%mem=16000MB
#p B2PLYPD3/Def2QZVP 

butadiene

0 1
C  -3.867200   0.201150   0.031608
C  -2.726053  -0.471092   0.000944
C  -1.369763   0.081058   0.009858
C  -0.249221  -0.665653   0.042525
H  -4.799921  -0.246507   0.157000
H  -3.814819   1.275291   0.027438
H  -2.776195  -1.577465   0.055821
H  -1.263593   1.154112  -0.118955
H  -0.332274  -1.745027   0.096407
H   0.709142  -0.200619   0.092787

