%chk=/home/boittier/MDCM/nms_sampling/butadiene_geom.xyz.dir/butadiene_2460.chk
%nproc=8
%mem=16000MB
#p B2PLYPD3/Def2QZVP 

butadiene

0 1
C  -3.834050   0.162871  -0.043676
C  -2.703340  -0.469148   0.140982
C  -1.380144   0.120326   0.050124
C  -0.287541  -0.681521  -0.008431
H  -4.907599  -0.149749  -0.234788
H  -3.775087   1.333486  -0.036386
H  -2.758817  -1.498957   0.062350
H  -1.298753   1.235669   0.144792
H  -0.375596  -1.804064  -0.041486
H   0.739366  -0.285795  -0.220694
