%chk=/home/boittier/MDCM/nms_sampling/butadiene_geom.xyz.dir/butadiene_741.chk
%nproc=8
%mem=16000MB
#p B2PLYPD3/Def2QZVP 

butadiene

0 1
C  -3.855613   0.208977   0.043111
C  -2.726960  -0.485762   0.021110
C  -1.374993   0.086926  -0.004642
C  -0.254054  -0.669037   0.046006
H  -4.817152  -0.284715  -0.025145
H  -3.805746   1.293506   0.025083
H  -2.790704  -1.543840  -0.000015
H  -1.273532   1.177142  -0.115547
H  -0.310322  -1.736510   0.101850
H   0.720154  -0.192541   0.055972

