%chk=/home/boittier/MDCM/nms_sampling/butadiene_geom.xyz.dir/butadiene_1814.chk
%nproc=8
%mem=16000MB
#p B2PLYPD3/Def2QZVP 

butadiene

0 1
C  -3.837916   0.208144   0.068732
C  -2.714066  -0.495979  -0.019121
C  -1.378918   0.100791  -0.043225
C  -0.275879  -0.669789   0.070223
H  -4.847282  -0.229202   0.062589
H  -3.801115   1.295409   0.033571
H  -2.680288  -1.569103   0.102841
H  -1.323807   1.223169  -0.035821
H  -0.379256  -1.783248   0.098485
H   0.690258  -0.249373   0.163735

