%chk=/home/boittier/MDCM/nms_sampling/butadiene_geom.xyz.dir/butadiene_1585.chk
%nproc=8
%mem=16000MB
#p B2PLYPD3/Def2QZVP 

butadiene

0 1
C  -3.845355   0.211024  -0.028244
C  -2.720781  -0.464841   0.074764
C  -1.385334   0.069670   0.074615
C  -0.258441  -0.663121  -0.015297
H  -4.801232  -0.313480  -0.050567
H  -3.926904   1.308715   0.013377
H  -2.737584  -1.556847   0.159021
H  -1.281615   1.146099  -0.014443
H  -0.257442  -1.758192   0.056724
H   0.712968  -0.247905  -0.088367
