%chk=/home/boittier/MDCM/nms_sampling/butadiene_geom.xyz.dir/butadiene_2846.chk
%nproc=8
%mem=16000MB
#p B2PLYPD3/Def2QZVP 

butadiene

0 1
C  -3.854381   0.191764  -0.000309
C  -2.686572  -0.471903   0.095404
C  -1.381131   0.097556   0.047241
C  -0.275185  -0.661041  -0.017519
H  -4.852017  -0.272761  -0.163943
H  -3.898881   1.280182  -0.083076
H  -2.742941  -1.529146   0.005492
H  -1.246547   1.137503  -0.088318
H  -0.561188  -1.694915   0.038585
H   0.849229  -0.387611   0.109229
