%chk=/home/boittier/MDCM/nms_sampling/butadiene_geom.xyz.dir/butadiene_2598.chk
%nproc=8
%mem=16000MB
#p B2PLYPD3/Def2QZVP 

butadiene

0 1
C  -3.881135   0.209773  -0.011998
C  -2.709036  -0.472791   0.096959
C  -1.361958   0.075244   0.025119
C  -0.247739  -0.652561  -0.019395
H  -4.820338  -0.337908   0.046323
H  -4.012845   1.303977  -0.177552
H  -2.795903  -1.609179   0.050882
H  -1.187982   1.208301   0.133669
H  -0.362173  -1.751454   0.014216
H   0.761867  -0.327290   0.219427

