%chk=/home/boittier/MDCM/nms_sampling/butadiene_geom.xyz.dir/butadiene_2823.chk
%nproc=8
%mem=16000MB
#p B2PLYPD3/Def2QZVP 

butadiene

0 1
C  -3.800128   0.250190   0.014844
C  -2.706696  -0.520962   0.055535
C  -1.419046   0.012289   0.010918
C  -0.273343  -0.621156   0.022911
H  -4.820888  -0.111757  -0.070079
H  -3.813626   1.263890   0.100118
H  -2.818703  -1.578321   0.014397
H  -1.343205   1.125123  -0.165377
H  -0.333969  -1.658139   0.060698
H   0.715640  -0.134048   0.116196
