%chk=/home/boittier/MDCM/nms_sampling/butadiene_geom.xyz.dir/butadiene_2331.chk
%nproc=8
%mem=16000MB
#p B2PLYPD3/Def2QZVP 

butadiene

0 1
C  -3.861545   0.241427  -0.006832
C  -2.722848  -0.518165   0.044496
C  -1.361588   0.046763   0.048498
C  -0.248419  -0.627272   0.001000
H  -4.793895  -0.282949   0.065631
H  -3.869553   1.353576  -0.036066
H  -2.850551  -1.659181   0.081724
H  -1.264282   1.154215   0.110258
H  -0.373312  -1.746083   0.213960
H   0.670858  -0.172938  -0.128578
