%chk=/home/boittier/MDCM/nms_sampling/butadiene_geom.xyz.dir/butadiene_522.chk
%nproc=8
%mem=16000MB
#p B2PLYPD3/Def2QZVP 

butadiene

0 1
C  -3.823854   0.236030   0.005542
C  -2.718970  -0.513032   0.060559
C  -1.402072   0.062306   0.022249
C  -0.268771  -0.647447   0.026150
H  -4.831734  -0.201626  -0.031598
H  -3.778935   1.301071  -0.010913
H  -2.752448  -1.590804   0.043060
H  -1.333596   1.127690  -0.025917
H  -0.253740  -1.729907   0.015526
H   0.706936  -0.177294  -0.035218
