%chk=/home/boittier/MDCM/nms_sampling/butadiene_geom.xyz.dir/butadiene_795.chk
%nproc=8
%mem=16000MB
#p B2PLYPD3/Def2QZVP 

butadiene

0 1
C  -3.834565   0.215123   0.029927
C  -2.713464  -0.491213   0.012521
C  -1.379311   0.083482  -0.011481
C  -0.280880  -0.665945   0.051037
H  -4.798160  -0.268223   0.104904
H  -3.788600   1.306006   0.044724
H  -2.784358  -1.581864   0.101001
H  -1.313099   1.177541  -0.020218
H  -0.307405  -1.744702   0.053582
H   0.668704  -0.190034   0.080227

