%chk=/home/boittier/MDCM/nms_sampling/butadiene_geom.xyz.dir/butadiene_2354.chk
%nproc=8
%mem=16000MB
#p B2PLYPD3/Def2QZVP 

butadiene

0 1
C  -3.768509   0.248169   0.026896
C  -2.726961  -0.535688  -0.018619
C  -1.433695   0.026455   0.010412
C  -0.275201  -0.621374   0.056253
H  -4.735699  -0.143403   0.207837
H  -3.702862   1.387021   0.176713
H  -2.942555  -1.617624   0.056413
H  -1.452433   1.177260  -0.195837
H  -0.188153  -1.687758   0.152544
H   0.686135  -0.164397   0.017076

