%chk=/home/boittier/MDCM/nms_sampling/butadiene_geom.xyz.dir/butadiene_2565.chk
%nproc=8
%mem=16000MB
#p B2PLYPD3/Def2QZVP 

butadiene

0 1
C  -3.860084   0.238296   0.090905
C  -2.729603  -0.511785  -0.078586
C  -1.366418   0.044632  -0.051036
C  -0.233669  -0.631384   0.073585
H  -4.920427  -0.124829   0.268304
H  -3.815857   1.283889   0.033060
H  -2.834432  -1.674613   0.141324
H  -1.504136   1.090707  -0.025916
H  -0.240075  -1.716876   0.251786
H   0.760263  -0.183868   0.277345
