%chk=/home/boittier/MDCM/nms_sampling/butadiene_geom.xyz.dir/butadiene_1421.chk
%nproc=8
%mem=16000MB
#p B2PLYPD3/Def2QZVP 

butadiene

0 1
C  -3.828658   0.227406  -0.015752
C  -2.729317  -0.518751   0.048746
C  -1.395578   0.078649   0.056797
C  -0.262233  -0.652984   0.004245
H  -4.841071  -0.200357   0.034100
H  -3.661792   1.288994   0.011471
H  -2.767159  -1.599799   0.199971
H  -1.304385   1.176437   0.020375
H  -0.320383  -1.711750   0.041119
H   0.677308  -0.174781  -0.073742
