%chk=/home/boittier/MDCM/nms_sampling/butadiene_geom.xyz.dir/butadiene_1154.chk
%nproc=8
%mem=16000MB
#p B2PLYPD3/Def2QZVP 

butadiene

0 1
C  -3.855963   0.215687  -0.009842
C  -2.711901  -0.475713   0.064218
C  -1.375293   0.067719   0.041533
C  -0.263275  -0.666962   0.001427
H  -4.814002  -0.229657  -0.101542
H  -3.923628   1.259927   0.089018
H  -2.715278  -1.542909   0.147729
H  -1.299783   1.158585  -0.021265
H  -0.264344  -1.745641   0.094313
H   0.667592  -0.194303  -0.036630

