%chk=/home/boittier/MDCM/nms_sampling/butadiene_geom.xyz.dir/butadiene_2462.chk
%nproc=8
%mem=16000MB
#p B2PLYPD3/Def2QZVP 

butadiene

0 1
C  -3.870016   0.255383  -0.045419
C  -2.740820  -0.515722   0.087205
C  -1.393150   0.033622   0.089416
C  -0.232561  -0.640671  -0.021573
H  -4.829059  -0.242774  -0.007467
H  -3.722397   1.347628   0.020508
H  -2.633483  -1.647848   0.171518
H  -1.331642   1.121886  -0.061881
H  -0.180387  -1.699910  -0.024103
H   0.748342  -0.092637  -0.067351

