%chk=/home/boittier/MDCM/nms_sampling/butadiene_geom.xyz.dir/butadiene_2164.chk
%nproc=8
%mem=16000MB
#p B2PLYPD3/Def2QZVP 

butadiene

0 1
C  -3.858081   0.197392  -0.023663
C  -2.696079  -0.454500   0.098085
C  -1.363452   0.079603   0.014423
C  -0.280435  -0.673195   0.025999
H  -4.829596  -0.326787   0.111988
H  -3.855067   1.327414  -0.189825
H  -2.774697  -1.550294   0.141052
H  -1.262043   1.111341   0.176376
H  -0.344390  -1.799953  -0.274049
H   0.600702  -0.156643   0.052681

