%chk=/home/boittier/MDCM/nms_sampling/butadiene_geom.xyz.dir/butadiene_1227.chk
%nproc=8
%mem=16000MB
#p B2PLYPD3/Def2QZVP 

butadiene

0 1
C  -3.834724   0.216654   0.028093
C  -2.697670  -0.488405   0.029321
C  -1.384102   0.100131   0.011732
C  -0.291480  -0.685927   0.026600
H  -4.802021  -0.284516  -0.030970
H  -3.856906   1.267858   0.098303
H  -2.662723  -1.563461  -0.009917
H  -1.287858   1.221924  -0.152539
H  -0.371239  -1.764044   0.184532
H   0.648939  -0.181369   0.062310
