%chk=/home/boittier/MDCM/nms_sampling/butadiene_geom.xyz.dir/butadiene_2048.chk
%nproc=8
%mem=16000MB
#p B2PLYPD3/Def2QZVP 

butadiene

0 1
C  -3.836929   0.185479  -0.058895
C  -2.702729  -0.485757   0.084587
C  -1.372326   0.116764   0.097660
C  -0.274802  -0.669926  -0.035331
H  -4.815232  -0.288328   0.120812
H  -3.868782   1.339453  -0.127058
H  -2.910508  -1.541240   0.332096
H  -1.302682   1.218496   0.163107
H  -0.491986  -1.776750  -0.090318
H   0.798899  -0.302212  -0.037588
