%chk=/home/boittier/MDCM/nms_sampling/butadiene_geom.xyz.dir/butadiene_892.chk
%nproc=8
%mem=16000MB
#p B2PLYPD3/Def2QZVP 

butadiene

0 1
C  -3.842928   0.213521  -0.001263
C  -2.715875  -0.483073   0.057988
C  -1.384778   0.085634   0.025089
C  -0.265123  -0.667832   0.019736
H  -4.801923  -0.280050  -0.002738
H  -3.848663   1.295822   0.033611
H  -2.774331  -1.573627   0.082400
H  -1.330231   1.151462  -0.030405
H  -0.313396  -1.756638   0.031324
H   0.752918  -0.211813   0.004499
