%chk=/home/boittier/MDCM/nms_sampling/butadiene_geom.xyz.dir/butadiene_2551.chk
%nproc=8
%mem=16000MB
#p B2PLYPD3/Def2QZVP 

butadiene

0 1
C  -3.875277   0.218029   0.017609
C  -2.727035  -0.475035   0.029141
C  -1.359087   0.096687   0.070856
C  -0.222764  -0.681665   0.001989
H  -4.797315  -0.350730   0.091423
H  -3.976765   1.262658  -0.307924
H  -2.765588  -1.578147   0.192239
H  -1.382493   1.135099  -0.001934
H  -0.388956  -1.730756  -0.089029
H   0.690863  -0.231600   0.052255

