%chk=/home/boittier/MDCM/nms_sampling/butadiene_geom.xyz.dir/butadiene_311.chk
%nproc=8
%mem=16000MB
#p B2PLYPD3/Def2QZVP 

butadiene

0 1
C  -3.830769   0.232497   0.017943
C  -2.728483  -0.517761   0.052867
C  -1.390615   0.068137   0.012973
C  -0.266462  -0.646690   0.025110
H  -4.823589  -0.215329  -0.045918
H  -3.725191   1.299080  -0.022024
H  -2.781285  -1.586118   0.007523
H  -1.305403   1.146971  -0.008443
H  -0.280486  -1.731360   0.097188
H   0.704146  -0.162473  -0.010677

