%chk=/home/boittier/MDCM/nms_sampling/butadiene_geom.xyz.dir/butadiene_1110.chk
%nproc=8
%mem=16000MB
#p B2PLYPD3/Def2QZVP 

butadiene

0 1
C  -3.816357   0.232816   0.015472
C  -2.724482  -0.509754   0.041552
C  -1.408658   0.043887   0.030634
C  -0.269468  -0.641965   0.024996
H  -4.812265  -0.186644   0.057675
H  -3.729357   1.313037  -0.128363
H  -2.791701  -1.560850   0.068576
H  -1.294095   1.137380  -0.001158
H  -0.240348  -1.680894  -0.003536
H   0.697656  -0.140847  -0.000452
