%chk=/home/boittier/MDCM/nms_sampling/butadiene_geom.xyz.dir/butadiene_2080.chk
%nproc=8
%mem=16000MB
#p B2PLYPD3/Def2QZVP 

butadiene

0 1
C  -3.842425   0.197442   0.072331
C  -2.709605  -0.488881  -0.049884
C  -1.392288   0.137742  -0.051748
C  -0.278400  -0.691957   0.093519
H  -4.826773  -0.292250   0.149455
H  -3.755208   1.303362   0.230055
H  -2.584857  -1.543220  -0.075273
H  -1.276496   1.167245  -0.102353
H  -0.460580  -1.737650   0.369396
H   0.767490  -0.313470  -0.048926

