%chk=/home/boittier/MDCM/nms_sampling/butadiene_geom.xyz.dir/butadiene_2584.chk
%nproc=8
%mem=16000MB
#p B2PLYPD3/Def2QZVP 

butadiene

0 1
C  -3.849059   0.277972  -0.041681
C  -2.717827  -0.544776   0.095541
C  -1.392424   0.008416   0.079382
C  -0.235065  -0.612474  -0.000397
H  -4.792542  -0.199080   0.113841
H  -3.938941   1.316958  -0.291236
H  -2.888352  -1.630848   0.188181
H  -1.333660   1.124245   0.182609
H  -0.168350  -1.664053  -0.236852
H   0.656157  -0.161468  -0.154513

