%chk=/home/boittier/MDCM/nms_sampling/butadiene_geom.xyz.dir/butadiene_1523.chk
%nproc=8
%mem=16000MB
#p B2PLYPD3/Def2QZVP 

butadiene

0 1
C  -3.855071   0.217364   0.048336
C  -2.732984  -0.480247   0.002706
C  -1.372542   0.076470  -0.018233
C  -0.255713  -0.661426   0.067904
H  -4.723144  -0.318058   0.037073
H  -3.880736   1.284188   0.084259
H  -2.754511  -1.578428  -0.057121
H  -1.256486   1.160173  -0.092725
H  -0.319844  -1.739327   0.181212
H   0.721676  -0.225418  -0.063042
