%chk=/home/boittier/MDCM/nms_sampling/butadiene_geom.xyz.dir/butadiene_2306.chk
%nproc=8
%mem=16000MB
#p B2PLYPD3/Def2QZVP 

butadiene

0 1
C  -3.843527   0.184512  -0.048299
C  -2.697279  -0.480741   0.102090
C  -1.381649   0.135824   0.057125
C  -0.299974  -0.689427   0.000799
H  -4.819566  -0.265165   0.083818
H  -3.765443   1.233319  -0.179790
H  -2.661738  -1.503734   0.224600
H  -1.156576   1.209128   0.258575
H  -0.531607  -1.789529  -0.180468
H   0.774487  -0.252512  -0.137619
