%chk=/home/boittier/MDCM/nms_sampling/butadiene_geom.xyz.dir/butadiene_293.chk
%nproc=8
%mem=16000MB
#p B2PLYPD3/Def2QZVP 

butadiene

0 1
C  -3.847971   0.214030   0.039879
C  -2.718309  -0.485874   0.004484
C  -1.378959   0.081185  -0.000004
C  -0.270244  -0.666424   0.053932
H  -4.793642  -0.264175   0.052227
H  -3.851435   1.301845   0.028772
H  -2.783597  -1.559260   0.050611
H  -1.291696   1.164437  -0.075929
H  -0.229320  -1.760224   0.100408
H   0.716175  -0.195591  -0.012069
