%chk=/home/boittier/MDCM/nms_sampling/butadiene_geom.xyz.dir/butadiene_1965.chk
%nproc=8
%mem=16000MB
#p B2PLYPD3/Def2QZVP 

butadiene

0 1
C  -3.835905   0.218939   0.003151
C  -2.702069  -0.521531   0.066314
C  -1.374650   0.130943   0.008956
C  -0.280282  -0.682865   0.042508
H  -4.822962  -0.311380  -0.212175
H  -3.880732   1.307066   0.120026
H  -2.682973  -1.553075   0.184894
H  -1.293377   1.256796   0.003933
H  -0.535637  -1.809128  -0.062085
H   0.703826  -0.231868  -0.147031
