%chk=/home/boittier/MDCM/nms_sampling/butadiene_geom.xyz.dir/butadiene_2267.chk
%nproc=8
%mem=16000MB
#p B2PLYPD3/Def2QZVP 

butadiene

0 1
C  -3.852758   0.207283   0.073233
C  -2.696124  -0.491421  -0.020353
C  -1.364892   0.094030  -0.070404
C  -0.271288  -0.664414   0.107207
H  -4.887289  -0.265247   0.140618
H  -3.783216   1.298056   0.069091
H  -2.802419  -1.610871   0.048830
H  -1.392952   1.233751  -0.130777
H  -0.470566  -1.761648  -0.076523
H   0.717814  -0.253089   0.203650

