%chk=/home/boittier/MDCM/nms_sampling/butadiene_geom.xyz.dir/butadiene_2377.chk
%nproc=8
%mem=16000MB
#p B2PLYPD3/Def2QZVP 

butadiene

0 1
C  -3.824123   0.218276  -0.027372
C  -2.715832  -0.506760   0.035418
C  -1.384082   0.069475   0.062773
C  -0.271516  -0.633203  -0.000275
H  -4.815187  -0.149094   0.178353
H  -3.641857   1.279562  -0.026255
H  -2.849887  -1.637512   0.351827
H  -1.468076   1.109871   0.099082
H  -0.426268  -1.732223  -0.046179
H   0.720349  -0.269999   0.007991

