%chk=/home/boittier/MDCM/nms_sampling/butadiene_geom.xyz.dir/butadiene_1386.chk
%nproc=8
%mem=16000MB
#p B2PLYPD3/Def2QZVP 

butadiene

0 1
C  -3.845806   0.232635  -0.012072
C  -2.727343  -0.503441   0.068581
C  -1.374611   0.048945   0.011167
C  -0.261946  -0.649209   0.012374
H  -4.819208  -0.205288   0.075986
H  -3.757695   1.287623  -0.040871
H  -2.832133  -1.614611   0.165532
H  -1.318175   1.128156   0.160465
H  -0.237136  -1.692941  -0.012614
H   0.659897  -0.081338   0.079842

