%chk=/home/boittier/MDCM/nms_sampling/butadiene_geom.xyz.dir/butadiene_437.chk
%nproc=8
%mem=16000MB
#p B2PLYPD3/Def2QZVP 

butadiene

0 1
C  -3.848588   0.216025   0.046047
C  -2.709641  -0.483027   0.013936
C  -1.382573   0.082966  -0.013075
C  -0.268500  -0.670141   0.051727
H  -4.814399  -0.256599  -0.011212
H  -3.848350   1.269807   0.038673
H  -2.781347  -1.578733   0.010065
H  -1.299996   1.154136  -0.069509
H  -0.255913  -1.741869   0.134443
H   0.686086  -0.197605   0.029760

