%chk=/home/boittier/MDCM/nms_sampling/butadiene_geom.xyz.dir/butadiene_1608.chk
%nproc=8
%mem=16000MB
#p B2PLYPD3/Def2QZVP 

butadiene

0 1
C  -3.841408   0.220548   0.054588
C  -2.712993  -0.481643  -0.014507
C  -1.390017   0.091605  -0.026665
C  -0.259273  -0.675443   0.078343
H  -4.771288  -0.333539   0.141196
H  -3.942070   1.274776   0.011021
H  -2.805038  -1.584891   0.080186
H  -1.299666   1.167373  -0.079322
H  -0.281591  -1.717198   0.001560
H   0.730050  -0.256738   0.082362
