%chk=/home/boittier/MDCM/nms_sampling/butadiene_geom.xyz.dir/butadiene_2585.chk
%nproc=8
%mem=16000MB
#p B2PLYPD3/Def2QZVP 

butadiene

0 1
C  -3.818980   0.260554   0.028441
C  -2.703978  -0.531620   0.019528
C  -1.387211   0.031280  -0.002704
C  -0.287353  -0.622622   0.059199
H  -4.748165  -0.199896   0.129955
H  -3.911006   1.319733   0.097972
H  -2.803600  -1.637836  -0.134117
H  -1.380272   1.147775  -0.187437
H  -0.282632  -1.771714   0.135535
H   0.679373  -0.161184  -0.013178

