%chk=/home/boittier/MDCM/nms_sampling/butadiene_geom.xyz.dir/butadiene_1200.chk
%nproc=8
%mem=16000MB
#p B2PLYPD3/Def2QZVP 

butadiene

0 1
C  -3.838509   0.230053   0.064326
C  -2.713269  -0.513817  -0.017426
C  -1.382251   0.066177  -0.003319
C  -0.266772  -0.652990   0.056732
H  -4.864599  -0.185759   0.107998
H  -3.727959   1.326830  -0.093023
H  -2.754705  -1.553756   0.050089
H  -1.422759   1.124419  -0.122159
H  -0.278236  -1.736908   0.056973
H   0.634645  -0.156910   0.124019
