%chk=/home/boittier/MDCM/nms_sampling/butadiene_geom.xyz.dir/butadiene_2848.chk
%nproc=8
%mem=16000MB
#p B2PLYPD3/Def2QZVP 

butadiene

0 1
C  -3.831386   0.196751  -0.030972
C  -2.692628  -0.489716   0.093743
C  -1.387853   0.124594   0.043468
C  -0.292312  -0.665803   0.004182
H  -4.789308  -0.243853  -0.076578
H  -3.895018   1.259934   0.170908
H  -2.757555  -1.643909   0.057244
H  -1.171555   1.205950  -0.164218
H  -0.525185  -1.812055  -0.016610
H   0.759145  -0.339232   0.015452
