%chk=/home/boittier/MDCM/nms_sampling/butadiene_geom.xyz.dir/butadiene_2789.chk
%nproc=8
%mem=16000MB
#p B2PLYPD3/Def2QZVP 

butadiene

0 1
C  -3.786800   0.246181   0.052529
C  -2.719818  -0.525115   0.006197
C  -1.430187   0.011529  -0.035842
C  -0.286803  -0.616263   0.047492
H  -4.799593  -0.120318   0.214206
H  -3.685257   1.341948  -0.036909
H  -2.770117  -1.543399  -0.111061
H  -1.298734   1.091676  -0.040578
H  -0.234573  -1.687332   0.198992
H   0.685574  -0.115276   0.255993
