%chk=/home/boittier/MDCM/nms_sampling/butadiene_geom.xyz.dir/butadiene_1268.chk
%nproc=8
%mem=16000MB
#p B2PLYPD3/Def2QZVP 

butadiene

0 1
C  -3.833010   0.235011   0.050003
C  -2.729249  -0.529779  -0.016022
C  -1.399706   0.076111  -0.017369
C  -0.253325  -0.654963   0.053198
H  -4.836994  -0.165743   0.156847
H  -3.698735   1.346959   0.019891
H  -2.755084  -1.621764   0.052884
H  -1.355600   1.153096  -0.007360
H  -0.248656  -1.702609   0.196724
H   0.674271  -0.146240   0.085467
