%chk=/home/boittier/MDCM/nms_sampling/butadiene_geom.xyz.dir/butadiene_679.chk
%nproc=8
%mem=16000MB
#p B2PLYPD3/Def2QZVP 

butadiene

0 1
C  -3.852652   0.222368   0.040709
C  -2.725141  -0.498928   0.014272
C  -1.374720   0.068343  -0.009705
C  -0.255754  -0.654204   0.056913
H  -4.845570  -0.237591   0.020571
H  -3.781850   1.289601   0.050349
H  -2.815936  -1.586782   0.021211
H  -1.293945   1.154094  -0.103553
H  -0.281211  -1.746268   0.074053
H   0.695542  -0.139442   0.026465

