%chk=/home/boittier/MDCM/nms_sampling/butadiene_geom.xyz.dir/butadiene_30.chk
%nproc=8
%mem=16000MB
#p B2PLYPD3/Def2QZVP 

butadiene

0 1
C  -3.846995   0.215851  -0.004913
C  -2.721480  -0.488325   0.065129
C  -1.384093   0.073581   0.034084
C  -0.256562  -0.655270   0.011578
H  -4.806966  -0.278033  -0.005169
H  -3.854863   1.312128  -0.010554
H  -2.772988  -1.566378   0.066257
H  -1.292439   1.157450  -0.012632
H  -0.337933  -1.732794   0.037677
H   0.765916  -0.241826  -0.008539
