%chk=/home/boittier/MDCM/nms_sampling/butadiene_geom.xyz.dir/butadiene_2270.chk
%nproc=8
%mem=16000MB
#p B2PLYPD3/Def2QZVP 

butadiene

0 1
C  -3.877932   0.183418   0.047193
C  -2.727498  -0.451250   0.003165
C  -1.373500   0.134561  -0.003105
C  -0.248678  -0.704866   0.066694
H  -4.800338  -0.332940   0.221746
H  -3.809332   1.217712  -0.208373
H  -2.694104  -1.538891   0.012083
H  -1.244963   1.262823  -0.027076
H  -0.276998  -1.846093  -0.082990
H   0.725999  -0.249345   0.061865
