%chk=/home/boittier/MDCM/nms_sampling/butadiene_geom.xyz.dir/butadiene_616.chk
%nproc=8
%mem=16000MB
#p B2PLYPD3/Def2QZVP 

butadiene

0 1
C  -3.844536   0.212421   0.031736
C  -2.708410  -0.485924   0.026284
C  -1.380918   0.085283  -0.011638
C  -0.276005  -0.670399   0.042377
H  -4.819885  -0.230434   0.055272
H  -3.830662   1.284938  -0.027304
H  -2.724892  -1.572217   0.070306
H  -1.326524   1.163253   0.042000
H  -0.316331  -1.739490   0.072472
H   0.711704  -0.204519   0.072617
