%chk=/home/boittier/MDCM/nms_sampling/butadiene_geom.xyz.dir/butadiene_2628.chk
%nproc=8
%mem=16000MB
#p B2PLYPD3/Def2QZVP 

butadiene

0 1
C  -3.828555   0.240074  -0.016436
C  -2.716777  -0.560021   0.114929
C  -1.388168   0.049886   0.042799
C  -0.270622  -0.616883  -0.020673
H  -4.917410  -0.053099  -0.023328
H  -3.645243   1.353549  -0.351073
H  -2.869503  -1.639276   0.143702
H  -1.271898   1.178147   0.222884
H  -0.272427  -1.690713  -0.174675
H   0.615757  -0.163026   0.136153

