%chk=/home/boittier/MDCM/nms_sampling/butadiene_geom.xyz.dir/butadiene_2260.chk
%nproc=8
%mem=16000MB
#p B2PLYPD3/Def2QZVP 

butadiene

0 1
C  -3.813767   0.229501   0.036587
C  -2.749757  -0.545242   0.004879
C  -1.382927   0.074011  -0.073854
C  -0.258719  -0.632650   0.081138
H  -4.899773  -0.122178   0.204403
H  -3.593563   1.346655   0.198087
H  -2.834045  -1.613329   0.041140
H  -1.298517   1.077542   0.031874
H  -0.322297  -1.724129   0.103550
H   0.598987  -0.107408   0.189759

