%chk=/home/boittier/MDCM/nms_sampling/butadiene_geom.xyz.dir/butadiene_2117.chk
%nproc=8
%mem=16000MB
#p B2PLYPD3/Def2QZVP 

butadiene

0 1
C  -3.823846   0.204391   0.044606
C  -2.701259  -0.475464   0.024273
C  -1.377026   0.101349  -0.062535
C  -0.313410  -0.667689   0.091674
H  -4.696565  -0.416064  -0.046751
H  -3.918628   1.298023   0.254235
H  -2.733944  -1.528059  -0.106458
H  -1.223658   1.242147  -0.086376
H  -0.477420  -1.772918   0.159261
H   0.830372  -0.345282  -0.065225

