%chk=/home/boittier/MDCM/nms_sampling/butadiene_geom.xyz.dir/butadiene_2577.chk
%nproc=8
%mem=16000MB
#p B2PLYPD3/Def2QZVP 

butadiene

0 1
C  -3.862340   0.195764   0.039334
C  -2.689363  -0.469479   0.005456
C  -1.367433   0.105616  -0.036901
C  -0.291844  -0.691971   0.040232
H  -4.780425  -0.210602   0.194726
H  -4.003973   1.236890  -0.056137
H  -2.680611  -1.522169   0.128466
H  -1.211943   1.222332   0.188437
H  -0.315577  -1.748784   0.148066
H   0.685189  -0.245445   0.213047
