%chk=/home/boittier/MDCM/nms_sampling/butadiene_geom.xyz.dir/butadiene_7.chk
%nproc=8
%mem=16000MB
#p B2PLYPD3/Def2QZVP 

butadiene

0 1
C  -3.840609   0.227440  -0.002851
C  -2.715972  -0.510573   0.070500
C  -1.388317   0.054477   0.030810
C  -0.265727  -0.641102   0.017388
H  -4.848843  -0.177095  -0.033087
H  -3.757606   1.327887  -0.024385
H  -2.782541  -1.586954   0.039712
H  -1.309563   1.140046  -0.014378
H  -0.287596  -1.741326   0.013655
H   0.698674  -0.152038  -0.041021

