%chk=/home/boittier/MDCM/nms_sampling/butadiene_geom.xyz.dir/butadiene_216.chk
%nproc=8
%mem=16000MB
#p B2PLYPD3/Def2QZVP 

butadiene

0 1
C  -3.841839   0.228182  -0.000824
C  -2.728566  -0.504196   0.065972
C  -1.393439   0.051790   0.036351
C  -0.253053  -0.642141   0.015501
H  -4.830945  -0.202244  -0.011852
H  -3.777471   1.305244  -0.074328
H  -2.792994  -1.565868   0.054624
H  -1.273289   1.135939   0.006336
H  -0.231678  -1.732627   0.004682
H   0.703005  -0.159370  -0.045774

