%chk=/home/boittier/MDCM/nms_sampling/butadiene_geom.xyz.dir/butadiene_1455.chk
%nproc=8
%mem=16000MB
#p B2PLYPD3/Def2QZVP 

butadiene

0 1
C  -3.823003   0.251364   0.049498
C  -2.725709  -0.544003   0.003932
C  -1.396693   0.060862  -0.022422
C  -0.265958  -0.630709   0.070513
H  -4.830858  -0.187354   0.093881
H  -3.754869   1.303909  -0.002377
H  -2.777160  -1.607178   0.059231
H  -1.376564   1.159606  -0.116843
H  -0.273635  -1.697460  -0.046838
H   0.753242  -0.249316   0.125336

