%chk=/home/boittier/MDCM/nms_sampling/butadiene_geom.xyz.dir/butadiene_992.chk
%nproc=8
%mem=16000MB
#p B2PLYPD3/Def2QZVP 

butadiene

0 1
C  -3.839579   0.241288   0.030741
C  -2.730567  -0.521812   0.038622
C  -1.395936   0.052923  -0.015762
C  -0.249322  -0.636768   0.055261
H  -4.806953  -0.227967   0.010484
H  -3.742436   1.321720   0.045947
H  -2.766232  -1.574559  -0.071001
H  -1.354982   1.124487  -0.068521
H  -0.321736  -1.721619   0.087099
H   0.778705  -0.170219  -0.005361

