%chk=/home/boittier/MDCM/nms_sampling/butadiene_geom.xyz.dir/butadiene_2825.chk
%nproc=8
%mem=16000MB
#p B2PLYPD3/Def2QZVP 

butadiene

0 1
C  -3.858115   0.191399  -0.045442
C  -2.753927  -0.468284   0.103435
C  -1.364317   0.084147   0.061583
C  -0.241709  -0.672652  -0.009232
H  -4.789423  -0.264282   0.062508
H  -3.773784   1.316003  -0.059987
H  -2.832912  -1.567159   0.164652
H  -1.212423   1.171396  -0.003888
H  -0.242615  -1.688249  -0.186446
H   0.656919  -0.168388   0.068460

