%chk=/home/boittier/MDCM/nms_sampling/butadiene_geom.xyz.dir/butadiene_906.chk
%nproc=8
%mem=16000MB
#p B2PLYPD3/Def2QZVP 

butadiene

0 1
C  -3.834531   0.225992   0.027249
C  -2.707828  -0.501109   0.013899
C  -1.388787   0.074444   0.002689
C  -0.271433  -0.657936   0.046787
H  -4.800851  -0.245234   0.046949
H  -3.850251   1.314641   0.101146
H  -2.804406  -1.580596   0.044645
H  -1.347246   1.138231  -0.078985
H  -0.290294  -1.731048   0.140944
H   0.705602  -0.207082  -0.021859
