%chk=/home/boittier/MDCM/nms_sampling/butadiene_geom.xyz.dir/butadiene_1028.chk
%nproc=8
%mem=16000MB
#p B2PLYPD3/Def2QZVP 

butadiene

0 1
C  -3.830238   0.215763  -0.009848
C  -2.703113  -0.503455   0.070466
C  -1.386738   0.085885   0.040828
C  -0.291762  -0.664112  -0.010461
H  -4.795885  -0.209232  -0.006265
H  -3.802211   1.308568  -0.105871
H  -2.776888  -1.554245   0.218615
H  -1.266293   1.160972   0.101782
H  -0.302798  -1.731279  -0.025734
H   0.665648  -0.192962   0.112480

