%chk=/home/boittier/MDCM/nms_sampling/butadiene_geom.xyz.dir/butadiene_485.chk
%nproc=8
%mem=16000MB
#p B2PLYPD3/Def2QZVP 

butadiene

0 1
C  -3.860961   0.216260   0.036882
C  -2.715062  -0.493710   0.017960
C  -1.372611   0.084615   0.004211
C  -0.259305  -0.664041   0.038147
H  -4.839845  -0.248607   0.031659
H  -3.863474   1.286410   0.005195
H  -2.778692  -1.565085   0.028526
H  -1.300975   1.170832  -0.093813
H  -0.289205  -1.761238   0.107530
H   0.742469  -0.204687   0.076012
