%chk=/home/boittier/MDCM/nms_sampling/butadiene_geom.xyz.dir/butadiene_2627.chk
%nproc=8
%mem=16000MB
#p B2PLYPD3/Def2QZVP 

butadiene

0 1
C  -3.783478   0.276956   0.033298
C  -2.739595  -0.547767   0.016020
C  -1.416085   0.021494   0.019528
C  -0.265500  -0.615234   0.062782
H  -4.766425  -0.268888  -0.018104
H  -3.733023   1.324204   0.050587
H  -2.854513  -1.677920   0.028837
H  -1.309743   1.104526  -0.219625
H  -0.288279  -1.630837  -0.025224
H   0.630393  -0.121778  -0.102952

