%chk=/home/boittier/MDCM/nms_sampling/butadiene_geom.xyz.dir/butadiene_2235.chk
%nproc=8
%mem=16000MB
#p B2PLYPD3/Def2QZVP 

butadiene

0 1
C  -3.866449   0.205950  -0.025492
C  -2.715168  -0.469527   0.067935
C  -1.364996   0.082299   0.087724
C  -0.255758  -0.675574  -0.037086
H  -4.893324  -0.210279  -0.005914
H  -3.926154   1.252597  -0.145172
H  -2.613499  -1.564169   0.295384
H  -1.293025   1.139841   0.094998
H  -0.349125  -1.710073   0.006645
H   0.674398  -0.226446   0.031613

