%chk=/home/boittier/MDCM/nms_sampling/butadiene_geom.xyz.dir/butadiene_1457.chk
%nproc=8
%mem=16000MB
#p B2PLYPD3/Def2QZVP 

butadiene

0 1
C  -3.822175   0.237481  -0.012721
C  -2.726002  -0.528041   0.062765
C  -1.398162   0.060830   0.044195
C  -0.258917  -0.640546   0.007527
H  -4.789975  -0.216758   0.039418
H  -3.740609   1.348491  -0.113898
H  -2.818429  -1.579208   0.245365
H  -1.342972   1.133285   0.093136
H  -0.350488  -1.706272  -0.117781
H   0.704110  -0.161937   0.021963
