%chk=/home/boittier/MDCM/nms_sampling/butadiene_geom.xyz.dir/butadiene_1851.chk
%nproc=8
%mem=16000MB
#p B2PLYPD3/Def2QZVP 

butadiene

0 1
C  -3.818020   0.249973  -0.017549
C  -2.714753  -0.527078   0.078512
C  -1.393376   0.059482   0.060114
C  -0.273085  -0.651864   0.007075
H  -4.764619  -0.222064  -0.088113
H  -3.827335   1.293360  -0.016955
H  -2.773816  -1.596109   0.126154
H  -1.398414   1.158851  -0.055986
H  -0.342184  -1.706873  -0.062989
H   0.683203  -0.125933  -0.106249
