%chk=/home/boittier/MDCM/nms_sampling/butadiene_geom.xyz.dir/butadiene_1845.chk
%nproc=8
%mem=16000MB
#p B2PLYPD3/Def2QZVP 

butadiene

0 1
C  -3.813896   0.257667   0.047485
C  -2.718870  -0.537589  -0.014856
C  -1.401692   0.059149  -0.008471
C  -0.270616  -0.641916   0.059741
H  -4.800442  -0.263953   0.116514
H  -3.744267   1.350828   0.004315
H  -2.823835  -1.638382   0.143265
H  -1.401097   1.133584  -0.038165
H  -0.245246  -1.719756   0.057084
H   0.673154  -0.143254   0.061123
