%chk=/home/boittier/MDCM/nms_sampling/butadiene_geom.xyz.dir/butadiene_1189.chk
%nproc=8
%mem=16000MB
#p B2PLYPD3/Def2QZVP 

butadiene

0 1
C  -3.858816   0.213048   0.054224
C  -2.710864  -0.486800  -0.020066
C  -1.364825   0.088144  -0.025927
C  -0.277399  -0.676306   0.072746
H  -4.787885  -0.274062   0.114393
H  -3.872823   1.309789   0.059398
H  -2.716617  -1.538171   0.100621
H  -1.288949   1.176369  -0.047167
H  -0.297200  -1.791862   0.092923
H   0.675638  -0.141730   0.048355

