%chk=/home/boittier/MDCM/nms_sampling/butadiene_geom.xyz.dir/butadiene_2366.chk
%nproc=8
%mem=16000MB
#p B2PLYPD3/Def2QZVP 

butadiene

0 1
C  -3.829382   0.230093   0.007576
C  -2.699650  -0.480713   0.036126
C  -1.398907   0.021347   0.016178
C  -0.256178  -0.632602   0.006623
H  -4.818032  -0.242911   0.054278
H  -3.877173   1.354680  -0.014222
H  -2.916653  -1.650339   0.288363
H  -1.401658   1.123348   0.055860
H  -0.292618  -1.691004  -0.014701
H   0.698616  -0.190834   0.229176

