%chk=/home/boittier/MDCM/nms_sampling/butadiene_geom.xyz.dir/butadiene_1234.chk
%nproc=8
%mem=16000MB
#p B2PLYPD3/Def2QZVP 

butadiene

0 1
C  -3.825072   0.220344  -0.017971
C  -2.705238  -0.492923   0.078211
C  -1.385891   0.087906   0.041909
C  -0.285078  -0.668233   0.012349
H  -4.792485  -0.332955  -0.070111
H  -3.853526   1.299966  -0.012901
H  -2.754116  -1.564404   0.129693
H  -1.261307   1.178524   0.084926
H  -0.424810  -1.768136   0.003782
H   0.681896  -0.178731  -0.157349
