%chk=/home/boittier/MDCM/nms_sampling/butadiene_geom.xyz.dir/butadiene_1560.chk
%nproc=8
%mem=16000MB
#p B2PLYPD3/Def2QZVP 

butadiene

0 1
C  -3.855268   0.231782  -0.018637
C  -2.727534  -0.511376   0.056256
C  -1.367158   0.069077   0.050560
C  -0.245461  -0.647544   0.007362
H  -4.848653  -0.214937   0.182846
H  -3.878025   1.266971  -0.110308
H  -2.867170  -1.567366   0.127310
H  -1.382892   1.124644   0.051070
H  -0.250654  -1.743231  -0.040332
H   0.745214  -0.194773   0.014499

