%chk=/home/boittier/MDCM/nms_sampling/butadiene_geom.xyz.dir/butadiene_2467.chk
%nproc=8
%mem=16000MB
#p B2PLYPD3/Def2QZVP 

butadiene

0 1
C  -3.847138   0.176315   0.090043
C  -2.692104  -0.449643  -0.024360
C  -1.385502   0.113484  -0.088103
C  -0.296682  -0.688732   0.080229
H  -4.728399  -0.303786  -0.007644
H  -3.701613   1.299481   0.191127
H  -2.687358  -1.533374  -0.073886
H  -1.279237   1.218638  -0.048605
H  -0.465915  -1.749148   0.358043
H   0.696917  -0.312552   0.191978

