%chk=/home/boittier/MDCM/nms_sampling/butadiene_geom.xyz.dir/butadiene_665.chk
%nproc=8
%mem=16000MB
#p B2PLYPD3/Def2QZVP 

butadiene

0 1
C  -3.855064   0.207096  -0.000398
C  -2.715911  -0.480099   0.051021
C  -1.380076   0.079822   0.021994
C  -0.261680  -0.663483   0.018954
H  -4.812132  -0.234583   0.022182
H  -3.841159   1.284416   0.018441
H  -2.750967  -1.568333   0.151681
H  -1.253979   1.159156   0.016008
H  -0.328760  -1.750491   0.010171
H   0.718674  -0.207976   0.041039
