%chk=/home/boittier/MDCM/nms_sampling/butadiene_geom.xyz.dir/butadiene_784.chk
%nproc=8
%mem=16000MB
#p B2PLYPD3/Def2QZVP 

butadiene

0 1
C  -3.840473   0.240338  -0.011746
C  -2.722579  -0.507573   0.066491
C  -1.394487   0.043291   0.039375
C  -0.251503  -0.644387   0.011687
H  -4.815015  -0.225069  -0.008980
H  -3.836915   1.308813  -0.000344
H  -2.778997  -1.577750   0.085140
H  -1.335758   1.145728   0.033280
H  -0.237985  -1.691793   0.054859
H   0.709808  -0.163710  -0.090909

