%chk=/home/boittier/MDCM/nms_sampling/butadiene_geom.xyz.dir/butadiene_551.chk
%nproc=8
%mem=16000MB
#p B2PLYPD3/Def2QZVP 

butadiene

0 1
C  -3.828103   0.236934  -0.004424
C  -2.714407  -0.513731   0.053848
C  -1.393406   0.056744   0.035723
C  -0.268832  -0.645759   0.018420
H  -4.794922  -0.199708   0.051352
H  -3.823627   1.308893  -0.008574
H  -2.777722  -1.576796   0.062237
H  -1.364954   1.126928  -0.010806
H  -0.299899  -1.728043   0.049216
H   0.704396  -0.167723  -0.048346
