%chk=/home/boittier/MDCM/nms_sampling/butadiene_geom.xyz.dir/butadiene_74.chk
%nproc=8
%mem=16000MB
#p B2PLYPD3/Def2QZVP 

butadiene

0 1
C  -3.846831   0.225758   0.004885
C  -2.725249  -0.506161   0.057956
C  -1.379016   0.062491   0.019279
C  -0.261975  -0.645124   0.025625
H  -4.843298  -0.193083   0.033560
H  -3.785639   1.296940  -0.072999
H  -2.790319  -1.603634   0.090172
H  -1.280445   1.133882   0.025661
H  -0.258768  -1.721512  -0.043865
H   0.700429  -0.175834   0.027071
