%chk=/home/boittier/MDCM/nms_sampling/butadiene_geom.xyz.dir/butadiene_2844.chk
%nproc=8
%mem=16000MB
#p B2PLYPD3/Def2QZVP 

butadiene

0 1
C  -3.828292   0.242273   0.001844
C  -2.736880  -0.548657   0.042300
C  -1.380891   0.078439   0.073780
C  -0.244105  -0.651638   0.011355
H  -4.853156  -0.185265  -0.107688
H  -3.748671   1.355698  -0.031353
H  -2.864456  -1.650971   0.153957
H  -1.392125   1.158061  -0.067733
H  -0.367208  -1.665772   0.049377
H   0.694726  -0.098214  -0.222115

