%chk=/home/boittier/MDCM/nms_sampling/butadiene_geom.xyz.dir/butadiene_2083.chk
%nproc=8
%mem=16000MB
#p B2PLYPD3/Def2QZVP 

butadiene

0 1
C  -3.877502   0.208366   0.062010
C  -2.699205  -0.448938   0.003352
C  -1.366601   0.089751  -0.042152
C  -0.252407  -0.687695   0.099541
H  -4.812071  -0.383676  -0.095947
H  -4.024437   1.243088   0.226172
H  -2.691529  -1.531945  -0.047737
H  -1.327470   1.189934  -0.291445
H  -0.377293  -1.826697   0.020432
H   0.741330  -0.212816  -0.019429

