%chk=/home/boittier/MDCM/nms_sampling/butadiene_geom.xyz.dir/butadiene_87.chk
%nproc=8
%mem=16000MB
#p B2PLYPD3/Def2QZVP 

butadiene

0 1
C  -3.847241   0.222510   0.016809
C  -2.725845  -0.505263   0.048669
C  -1.377366   0.064199   0.012166
C  -0.258411  -0.648853   0.023382
H  -4.825467  -0.196952   0.038996
H  -3.768565   1.310599  -0.091437
H  -2.822502  -1.590319   0.068924
H  -1.330451   1.161236   0.023538
H  -0.268857  -1.738355   0.011106
H   0.702920  -0.157398   0.087403
