%chk=/home/boittier/MDCM/nms_sampling/butadiene_geom.xyz.dir/butadiene_2532.chk
%nproc=8
%mem=16000MB
#p B2PLYPD3/Def2QZVP 

butadiene

0 1
C  -3.853986   0.245919  -0.018689
C  -2.738465  -0.547705   0.112423
C  -1.365741   0.032474   0.087179
C  -0.225251  -0.614626  -0.037376
H  -4.851929  -0.175507  -0.192719
H  -3.757788   1.399650  -0.293438
H  -3.024976  -1.621329   0.229548
H  -1.396545   1.134608   0.041257
H  -0.288794  -1.706236  -0.201182
H   0.706030  -0.091668   0.068567
