%chk=/home/boittier/MDCM/nms_sampling/butadiene_geom.xyz.dir/butadiene_1793.chk
%nproc=8
%mem=16000MB
#p B2PLYPD3/Def2QZVP 

butadiene

0 1
C  -3.858901   0.204437   0.038268
C  -2.728996  -0.480968   0.013414
C  -1.368454   0.092284  -0.009167
C  -0.247374  -0.668704   0.044013
H  -4.769858  -0.319926   0.044253
H  -3.856694   1.297994   0.090931
H  -2.833939  -1.532487  -0.061257
H  -1.267110   1.170546  -0.074019
H  -0.365886  -1.742784   0.255171
H   0.720253  -0.228109   0.010412

