%chk=/home/boittier/MDCM/nms_sampling/butadiene_geom.xyz.dir/butadiene_2483.chk
%nproc=8
%mem=16000MB
#p B2PLYPD3/Def2QZVP 

butadiene

0 1
C  -3.865991   0.210496  -0.031370
C  -2.727234  -0.491755   0.084709
C  -1.371933   0.062158   0.092671
C  -0.235806  -0.647340  -0.042734
H  -4.960409  -0.227057   0.148248
H  -3.898887   1.322660  -0.295277
H  -2.787709  -1.577630   0.080964
H  -1.155877   1.151321   0.123977
H  -0.347995  -1.731033   0.046242
H   0.746767  -0.156722   0.033532

