%chk=/home/boittier/MDCM/nms_sampling/butadiene_geom.xyz.dir/butadiene_2285.chk
%nproc=8
%mem=16000MB
#p B2PLYPD3/Def2QZVP 

butadiene

0 1
C  -3.861611   0.213686   0.004808
C  -2.715136  -0.468446   0.039425
C  -1.377998   0.077281   0.038262
C  -0.278436  -0.677804  -0.006907
H  -4.753635  -0.349314   0.096494
H  -3.811948   1.264715  -0.228830
H  -2.712434  -1.547398   0.286249
H  -1.118061   1.138763   0.249231
H  -0.289219  -1.713222   0.023516
H   0.671438  -0.116313   0.089364
