%chk=/home/boittier/MDCM/nms_sampling/butadiene_geom.xyz.dir/butadiene_1559.chk
%nproc=8
%mem=16000MB
#p B2PLYPD3/Def2QZVP 

butadiene

0 1
C  -3.821145   0.236659  -0.008971
C  -2.713110  -0.526733   0.054132
C  -1.391608   0.054045   0.034666
C  -0.280437  -0.638611   0.017080
H  -4.817836  -0.163944   0.018238
H  -3.773271   1.340999  -0.023876
H  -2.811059  -1.595509   0.232145
H  -1.285975   1.108303   0.067975
H  -0.293416  -1.696186  -0.061480
H   0.645972  -0.136146  -0.018269

