%chk=/home/boittier/MDCM/nms_sampling/butadiene_geom.xyz.dir/butadiene_1299.chk
%nproc=8
%mem=16000MB
#p B2PLYPD3/Def2QZVP 

butadiene

0 1
C  -3.833345   0.212375   0.035774
C  -2.710678  -0.488324   0.016268
C  -1.396141   0.077928  -0.034247
C  -0.264493  -0.659439   0.065467
H  -4.815222  -0.229490   0.008339
H  -3.783313   1.289653   0.211697
H  -2.809528  -1.585672  -0.023570
H  -1.351088   1.159918  -0.075601
H  -0.357119  -1.690394   0.193864
H   0.758037  -0.256846  -0.008203
