%chk=/home/boittier/MDCM/nms_sampling/butadiene_geom.xyz.dir/butadiene_2110.chk
%nproc=8
%mem=16000MB
#p B2PLYPD3/Def2QZVP 

butadiene

0 1
C  -3.800216   0.258415  -0.040506
C  -2.688767  -0.549928   0.106269
C  -1.417701   0.016806   0.129816
C  -0.284740  -0.604884  -0.061180
H  -4.822090  -0.135924  -0.157204
H  -3.792075   1.444522  -0.114098
H  -2.838771  -1.645212   0.066973
H  -1.368448   1.065961  -0.089996
H  -0.382765  -1.693582   0.117446
H   0.702081  -0.153125  -0.120500
