%chk=/home/boittier/MDCM/nms_sampling/butadiene_geom.xyz.dir/butadiene_1661.chk
%nproc=8
%mem=16000MB
#p B2PLYPD3/Def2QZVP 

butadiene

0 1
C  -3.856848   0.203074   0.055153
C  -2.719127  -0.468204  -0.011496
C  -1.361993   0.087681   0.003668
C  -0.274214  -0.675233   0.052328
H  -4.812079  -0.310566   0.086642
H  -3.863648   1.278298  -0.023076
H  -2.741620  -1.567279   0.024076
H  -1.211496   1.148241  -0.151962
H  -0.354100  -1.773166   0.108379
H   0.698458  -0.137090   0.074290
