%chk=/home/boittier/MDCM/nms_sampling/butadiene_geom.xyz.dir/butadiene_1723.chk
%nproc=8
%mem=16000MB
#p B2PLYPD3/Def2QZVP 

butadiene

0 1
C  -3.850436   0.233222   0.003382
C  -2.718448  -0.502624   0.064360
C  -1.388965   0.051971   0.006765
C  -0.246071  -0.653585   0.029180
H  -4.858729  -0.216730   0.029625
H  -3.828689   1.327094   0.009085
H  -2.745095  -1.547736   0.000176
H  -1.339538   1.129479  -0.010383
H  -0.232307  -1.742868   0.027140
H   0.635686  -0.121240   0.031170
