%chk=/home/boittier/MDCM/nms_sampling/butadiene_geom.xyz.dir/butadiene_232.chk
%nproc=8
%mem=16000MB
#p B2PLYPD3/Def2QZVP 

butadiene

0 1
C  -3.851078   0.215421  -0.003242
C  -2.721576  -0.489386   0.061811
C  -1.376282   0.089504   0.041765
C  -0.265442  -0.668719   0.017744
H  -4.824579  -0.279309   0.001462
H  -3.840962   1.289911  -0.048072
H  -2.734831  -1.584663   0.044890
H  -1.273159   1.184644  -0.018131
H  -0.279402  -1.740692   0.021292
H   0.710246  -0.225642  -0.087782
