%chk=/home/boittier/MDCM/nms_sampling/butadiene_geom.xyz.dir/butadiene_1831.chk
%nproc=8
%mem=16000MB
#p B2PLYPD3/Def2QZVP 

butadiene

0 1
C  -3.833729   0.209194   0.040854
C  -2.719865  -0.480513   0.022893
C  -1.384793   0.104286  -0.026332
C  -0.272492  -0.682456   0.044257
H  -4.770741  -0.330330  -0.035851
H  -3.836447   1.313924   0.135357
H  -2.761141  -1.549259  -0.040657
H  -1.321347   1.174095  -0.040619
H  -0.273736  -1.783864   0.262582
H   0.675184  -0.212186   0.047535

