%chk=/home/boittier/MDCM/nms_sampling/butadiene_geom.xyz.dir/butadiene_797.chk
%nproc=8
%mem=16000MB
#p B2PLYPD3/Def2QZVP 

butadiene

0 1
C  -3.839444   0.225091   0.026164
C  -2.721599  -0.504267   0.030971
C  -1.388696   0.058441   0.007420
C  -0.251514  -0.645158   0.032378
H  -4.844470  -0.197425   0.030316
H  -3.787148   1.301993   0.014412
H  -2.835087  -1.580562  -0.007551
H  -1.345765   1.149350  -0.052021
H  -0.294087  -1.712732   0.146752
H   0.706659  -0.191196   0.024287
