%chk=/home/boittier/MDCM/nms_sampling/butadiene_geom.xyz.dir/butadiene_1133.chk
%nproc=8
%mem=16000MB
#p B2PLYPD3/Def2QZVP 

butadiene

0 1
C  -3.832068   0.209750  -0.027075
C  -2.711358  -0.484370   0.068246
C  -1.393525   0.091337   0.080524
C  -0.268111  -0.662869  -0.009655
H  -4.808940  -0.280874   0.011649
H  -3.790184   1.279180  -0.008434
H  -2.799954  -1.595128   0.120770
H  -1.323476   1.170302  -0.071940
H  -0.390624  -1.730214   0.028047
H   0.758323  -0.280782  -0.088925

