%chk=/home/boittier/MDCM/nms_sampling/butadiene_geom.xyz.dir/butadiene_2781.chk
%nproc=8
%mem=16000MB
#p B2PLYPD3/Def2QZVP 

butadiene

0 1
C  -3.899532   0.182752   0.038206
C  -2.708041  -0.458518   0.009602
C  -1.346023   0.132128  -0.048280
C  -0.252322  -0.703666   0.071913
H  -4.893394  -0.286156   0.030545
H  -3.967352   1.262373   0.263352
H  -2.784804  -1.563167  -0.041322
H  -1.230616   1.168888  -0.044763
H  -0.268470  -1.789221   0.258181
H   0.762911  -0.204895  -0.017294
