%chk=/home/boittier/MDCM/nms_sampling/butadiene_geom.xyz.dir/butadiene_2447.chk
%nproc=8
%mem=16000MB
#p B2PLYPD3/Def2QZVP 

butadiene

0 1
C  -3.831936   0.253742   0.064047
C  -2.722459  -0.506704   0.005282
C  -1.410681   0.000117  -0.034700
C  -0.251741  -0.609738   0.051166
H  -4.795117  -0.309251  -0.029536
H  -3.800128   1.359841  -0.096162
H  -2.849401  -1.557500   0.171411
H  -1.251581   1.107627   0.085663
H  -0.203634  -1.709361   0.034295
H   0.722237  -0.170638   0.177288

