%chk=/home/boittier/MDCM/nms_sampling/butadiene_geom.xyz.dir/butadiene_2669.chk
%nproc=8
%mem=16000MB
#p B2PLYPD3/Def2QZVP 

butadiene

0 1
C  -3.796575   0.251681   0.092050
C  -2.716607  -0.537290  -0.046834
C  -1.435417   0.054489  -0.048144
C  -0.265345  -0.652910   0.091973
H  -4.929885  -0.143883  -0.008453
H  -3.705672   1.374348   0.156919
H  -2.817244  -1.624202  -0.122798
H  -1.368474   1.120992  -0.111322
H  -0.041716  -1.695585   0.409389
H   0.630661  -0.056555  -0.120956

