%chk=/home/boittier/MDCM/nms_sampling/butadiene_geom.xyz.dir/butadiene_1035.chk
%nproc=8
%mem=16000MB
#p B2PLYPD3/Def2QZVP 

butadiene

0 1
C  -3.851558   0.201194   0.041596
C  -2.713308  -0.486116  -0.011697
C  -1.377742   0.091387  -0.006381
C  -0.262828  -0.670624   0.054075
H  -4.843868  -0.207301   0.050136
H  -3.852431   1.316740   0.188138
H  -2.801852  -1.600524   0.042867
H  -1.246720   1.188693  -0.140041
H  -0.304839  -1.729449   0.236498
H   0.689357  -0.200745  -0.000699

