%chk=/home/boittier/MDCM/nms_sampling/butadiene_geom.xyz.dir/butadiene_573.chk
%nproc=8
%mem=16000MB
#p B2PLYPD3/Def2QZVP 

butadiene

0 1
C  -3.834322   0.213145   0.012341
C  -2.717816  -0.486646   0.043181
C  -1.385613   0.083851   0.032330
C  -0.270163  -0.659360   0.016532
H  -4.785777  -0.296185   0.028065
H  -3.796624   1.296497  -0.121464
H  -2.778037  -1.556209   0.117003
H  -1.329742   1.167233   0.058414
H  -0.367010  -1.777147   0.032888
H   0.735882  -0.239937  -0.009444

