%chk=/home/boittier/MDCM/nms_sampling/butadiene_geom.xyz.dir/butadiene_1688.chk
%nproc=8
%mem=16000MB
#p B2PLYPD3/Def2QZVP 

butadiene

0 1
C  -3.846680   0.229127  -0.004069
C  -2.728385  -0.500342   0.055619
C  -1.376173   0.063113   0.058957
C  -0.244919  -0.653202  -0.010820
H  -4.789091  -0.270089  -0.074574
H  -3.839386   1.273904   0.005905
H  -2.909176  -1.563151   0.121209
H  -1.331765   1.132765  -0.026821
H  -0.303956  -1.742313   0.151279
H   0.702161  -0.116183  -0.037085

