%chk=/home/boittier/MDCM/nms_sampling/butadiene_geom.xyz.dir/butadiene_3.chk
%nproc=8
%mem=16000MB
#p B2PLYPD3/Def2QZVP 

butadiene

0 1
C  -3.849996   0.217059   0.001145
C  -2.722142  -0.488806   0.053026
C  -1.375315   0.079432   0.033785
C  -0.256130  -0.661992   0.024117
H  -4.807995  -0.266461  -0.002215
H  -3.847510   1.297898  -0.028113
H  -2.774580  -1.577037   0.082326
H  -1.365292   1.148084   0.013037
H  -0.342133  -1.755680   0.030150
H   0.758124  -0.199951  -0.100953

