%chk=/home/boittier/MDCM/nms_sampling/butadiene_geom.xyz.dir/butadiene_343.chk
%nproc=8
%mem=16000MB
#p B2PLYPD3/Def2QZVP 

butadiene

0 1
C  -3.843187   0.234880   0.005892
C  -2.729626  -0.513544   0.051627
C  -1.382051   0.062332   0.037674
C  -0.256605  -0.646022   0.015178
H  -4.809967  -0.253243   0.045952
H  -3.810928   1.335374  -0.140356
H  -2.791241  -1.602489   0.092503
H  -1.313530   1.137605   0.049683
H  -0.274801  -1.718003   0.002723
H   0.732995  -0.169996  -0.020096

