%chk=/home/boittier/MDCM/nms_sampling/butadiene_geom.xyz.dir/butadiene_2725.chk
%nproc=8
%mem=16000MB
#p B2PLYPD3/Def2QZVP 

butadiene

0 1
C  -3.859612   0.210013   0.001444
C  -2.753476  -0.490238   0.065409
C  -1.361629   0.097762   0.049638
C  -0.241640  -0.672234   0.007504
H  -4.830552  -0.238213  -0.150387
H  -3.768024   1.280212  -0.115422
H  -2.750037  -1.583083   0.141973
H  -1.293916   1.110414   0.141608
H  -0.235182  -1.772821   0.073210
H   0.649173  -0.134253  -0.225572

