%chk=/home/boittier/MDCM/nms_sampling/butadiene_geom.xyz.dir/butadiene_2186.chk
%nproc=8
%mem=16000MB
#p B2PLYPD3/Def2QZVP 

butadiene

0 1
C  -3.829975   0.239477  -0.053981
C  -2.711405  -0.504922   0.107021
C  -1.401643   0.049014   0.040624
C  -0.252928  -0.660388  -0.010279
H  -4.823730  -0.151049   0.088369
H  -3.733444   1.292708  -0.084999
H  -2.746699  -1.573819   0.248098
H  -1.498757   1.144658   0.291404
H  -0.235375  -1.768957  -0.103460
H   0.557150  -0.056100  -0.018116

