%chk=/home/boittier/MDCM/nms_sampling/butadiene_geom.xyz.dir/butadiene_1076.chk
%nproc=8
%mem=16000MB
#p B2PLYPD3/Def2QZVP 

butadiene

0 1
C  -3.835817   0.247478   0.064266
C  -2.729253  -0.508896  -0.010427
C  -1.394903   0.046450  -0.016591
C  -0.244465  -0.646396   0.066178
H  -4.781760  -0.295467   0.069492
H  -3.802233   1.331905  -0.021786
H  -2.859877  -1.625953   0.001046
H  -1.391820   1.142632  -0.148631
H  -0.208632  -1.698547   0.070150
H   0.694928  -0.142182   0.100233
