%chk=/home/boittier/MDCM/nms_sampling/butadiene_geom.xyz.dir/butadiene_366.chk
%nproc=8
%mem=16000MB
#p B2PLYPD3/Def2QZVP 

butadiene

0 1
C  -3.845728   0.231636   0.025336
C  -2.738282  -0.514534   0.038838
C  -1.380666   0.060339  -0.000090
C  -0.249700  -0.648520   0.047639
H  -4.832937  -0.222011  -0.005421
H  -3.750072   1.321873   0.032106
H  -2.807052  -1.572608  -0.010281
H  -1.309450   1.136678  -0.079649
H  -0.233974  -1.699114   0.050681
H   0.700081  -0.131542  -0.015638

