%chk=/home/boittier/MDCM/nms_sampling/butadiene_geom.xyz.dir/butadiene_2663.chk
%nproc=8
%mem=16000MB
#p B2PLYPD3/Def2QZVP 

butadiene

0 1
C  -3.883129   0.191151  -0.033394
C  -2.744240  -0.463771   0.119025
C  -1.357189   0.075463   0.092995
C  -0.243483  -0.664456  -0.054274
H  -4.870285  -0.281180  -0.206053
H  -3.661363   1.348920  -0.075077
H  -2.765639  -1.592494   0.112242
H  -1.282797   1.162722  -0.086024
H  -0.254924  -1.708305   0.014675
H   0.759673  -0.179721   0.079283

