%chk=/home/boittier/MDCM/nms_sampling/butadiene_geom.xyz.dir/butadiene_2157.chk
%nproc=8
%mem=16000MB
#p B2PLYPD3/Def2QZVP 

butadiene

0 1
C  -3.846941   0.263271   0.059305
C  -2.736506  -0.521612  -0.008539
C  -1.370177   0.018347  -0.026539
C  -0.243641  -0.633455   0.089493
H  -4.782637  -0.245111   0.099711
H  -3.810002   1.315878   0.111490
H  -2.850407  -1.609215  -0.192647
H  -1.517272   1.128366  -0.226537
H  -0.197184  -1.700885   0.177404
H   0.709789  -0.061702  -0.074515
