%chk=/home/boittier/MDCM/nms_sampling/butadiene_geom.xyz.dir/butadiene_497.chk
%nproc=8
%mem=16000MB
#p B2PLYPD3/Def2QZVP 

butadiene

0 1
C  -3.850504   0.220225   0.010769
C  -2.723513  -0.491977   0.055062
C  -1.370703   0.082484   0.024389
C  -0.257918  -0.663545   0.019200
H  -4.818441  -0.292874  -0.058040
H  -3.874981   1.292019  -0.035977
H  -2.751960  -1.581964   0.066474
H  -1.311576   1.169502   0.024015
H  -0.345012  -1.743540   0.074820
H   0.715078  -0.212598  -0.047641

