%chk=/home/boittier/MDCM/nms_sampling/butadiene_geom.xyz.dir/butadiene_2177.chk
%nproc=8
%mem=16000MB
#p B2PLYPD3/Def2QZVP 

butadiene

0 1
C  -3.850877   0.252888   0.015916
C  -2.743323  -0.538800   0.033073
C  -1.387532   0.015777  -0.017875
C  -0.229852  -0.602819   0.052892
H  -4.829300  -0.212359  -0.057719
H  -3.855961   1.403582   0.333016
H  -2.895364  -1.618036   0.035940
H  -1.239193   1.136266  -0.186355
H  -0.189842  -1.694401   0.136660
H   0.768031  -0.184656   0.027593

