%chk=/home/boittier/MDCM/nms_sampling/butadiene_geom.xyz.dir/butadiene_1300.chk
%nproc=8
%mem=16000MB
#p B2PLYPD3/Def2QZVP 

butadiene

0 1
C  -3.819168   0.246418   0.041028
C  -2.716354  -0.523415  -0.016088
C  -1.395518   0.046632  -0.032543
C  -0.266211  -0.644292   0.073182
H  -4.801081  -0.221994   0.251067
H  -3.815437   1.339121   0.058446
H  -2.802448  -1.609146   0.052554
H  -1.378136   1.168653   0.022589
H  -0.323071  -1.707255   0.123954
H   0.677497  -0.111015   0.055831
