%chk=/home/boittier/MDCM/nms_sampling/butadiene_geom.xyz.dir/butadiene_2250.chk
%nproc=8
%mem=16000MB
#p B2PLYPD3/Def2QZVP 

butadiene

0 1
C  -3.873562   0.228458  -0.019134
C  -2.716119  -0.500743   0.096813
C  -1.374081   0.095199   0.086223
C  -0.251177  -0.654874  -0.027743
H  -4.797503  -0.319303  -0.145173
H  -3.876778   1.283367  -0.290045
H  -2.694976  -1.647075   0.134291
H  -1.288900   1.184933   0.227603
H  -0.365429  -1.792326   0.046357
H   0.791349  -0.319088  -0.237375
