%chk=/home/boittier/MDCM/nms_sampling/butadiene_geom.xyz.dir/butadiene_2300.chk
%nproc=8
%mem=16000MB
#p B2PLYPD3/Def2QZVP 

butadiene

0 1
C  -3.863457   0.203651   0.061261
C  -2.707117  -0.459062  -0.034878
C  -1.370560   0.108350  -0.053374
C  -0.295436  -0.699993   0.103139
H  -4.725512  -0.344010   0.409238
H  -3.965796   1.223478  -0.002393
H  -2.658723  -1.521314  -0.101356
H  -1.164393   1.217539  -0.087891
H  -0.205051  -1.742158   0.061706
H   0.738723  -0.232121   0.131790

