%chk=/home/boittier/MDCM/nms_sampling/butadiene_geom.xyz.dir/butadiene_1709.chk
%nproc=8
%mem=16000MB
#p B2PLYPD3/Def2QZVP 

butadiene

0 1
C  -3.821925   0.200166   0.060041
C  -2.711777  -0.474256  -0.013830
C  -1.391572   0.089843  -0.011633
C  -0.289702  -0.672585   0.059684
H  -4.804803  -0.280139  -0.002052
H  -3.761553   1.287103   0.082992
H  -2.767978  -1.528853   0.007805
H  -1.304179   1.193815  -0.125001
H  -0.329544  -1.743049   0.216051
H   0.731052  -0.230620  -0.008431

