%chk=/home/boittier/MDCM/nms_sampling/butadiene_geom.xyz.dir/butadiene_1216.chk
%nproc=8
%mem=16000MB
#p B2PLYPD3/Def2QZVP 

butadiene

0 1
C  -3.830213   0.238113   0.055314
C  -2.726150  -0.534997  -0.008730
C  -1.407915   0.061119  -0.047465
C  -0.258342  -0.634569   0.081851
H  -4.868810  -0.123055   0.091062
H  -3.669188   1.320334   0.079592
H  -2.731286  -1.567141   0.087741
H  -1.337394   1.129955  -0.023622
H  -0.227476  -1.745151   0.045863
H   0.705587  -0.192079   0.090899
