%chk=/home/boittier/MDCM/nms_sampling/butadiene_geom.xyz.dir/butadiene_1794.chk
%nproc=8
%mem=16000MB
#p B2PLYPD3/Def2QZVP 

butadiene

0 1
C  -3.850819   0.222668  -0.020524
C  -2.721265  -0.483338   0.070522
C  -1.374662   0.071601   0.063600
C  -0.257600  -0.662195   0.004452
H  -4.749451  -0.333884   0.094390
H  -3.909837   1.246921  -0.167573
H  -2.817463  -1.559632   0.121464
H  -1.238911   1.178968   0.058155
H  -0.373302  -1.753097  -0.085016
H   0.721009  -0.164866  -0.073623

