%chk=/home/boittier/MDCM/nms_sampling/butadiene_geom.xyz.dir/butadiene_314.chk
%nproc=8
%mem=16000MB
#p B2PLYPD3/Def2QZVP 

butadiene

0 1
C  -3.835342   0.222318   0.034838
C  -2.709514  -0.492105   0.024189
C  -1.389403   0.075680   0.001741
C  -0.275196  -0.659582   0.040887
H  -4.797267  -0.274722   0.048927
H  -3.826899   1.294054  -0.067435
H  -2.764793  -1.564003   0.065890
H  -1.320457   1.142463  -0.030526
H  -0.311555  -1.724382   0.021806
H   0.721161  -0.232468   0.082162
