%chk=/home/boittier/MDCM/nms_sampling/butadiene_geom.xyz.dir/butadiene_471.chk
%nproc=8
%mem=16000MB
#p B2PLYPD3/Def2QZVP 

butadiene

0 1
C  -3.829623   0.230698   0.002498
C  -2.713343  -0.510774   0.052036
C  -1.390520   0.075720   0.037236
C  -0.269537  -0.658269   0.010298
H  -4.778994  -0.242310  -0.006579
H  -3.812102   1.319481  -0.045942
H  -2.798816  -1.579664   0.100574
H  -1.373795   1.156726   0.035490
H  -0.317659  -1.755046   0.081020
H   0.699004  -0.164207  -0.042125

