%chk=/home/boittier/MDCM/nms_sampling/butadiene_geom.xyz.dir/butadiene_2232.chk
%nproc=8
%mem=16000MB
#p B2PLYPD3/Def2QZVP 

butadiene

0 1
C  -3.843579   0.188078   0.050460
C  -2.705433  -0.490302   0.006013
C  -1.372146   0.140887   0.007127
C  -0.291689  -0.682971   0.055707
H  -4.804848  -0.285307  -0.075268
H  -3.781621   1.264325   0.031722
H  -2.706404  -1.529042  -0.067370
H  -1.160404   1.240707  -0.076371
H  -0.504756  -1.891410   0.251749
H   0.674637  -0.238479  -0.211321
