%chk=/home/boittier/MDCM/nms_sampling/butadiene_geom.xyz.dir/butadiene_288.chk
%nproc=8
%mem=16000MB
#p B2PLYPD3/Def2QZVP 

butadiene

0 1
C  -3.831579   0.237370   0.026090
C  -2.719388  -0.529824   0.017267
C  -1.391076   0.070062   0.011860
C  -0.262237  -0.644871   0.044143
H  -4.835763  -0.182531   0.036690
H  -3.801428   1.316576   0.021914
H  -2.779171  -1.589638   0.093759
H  -1.330791   1.156362  -0.040221
H  -0.305538  -1.726259   0.070365
H   0.693752  -0.193006  -0.040096

