%chk=/home/boittier/MDCM/nms_sampling/butadiene_geom.xyz.dir/butadiene_1014.chk
%nproc=8
%mem=16000MB
#p B2PLYPD3/Def2QZVP 

butadiene

0 1
C  -3.856208   0.207557   0.039124
C  -2.708030  -0.467092   0.013350
C  -1.373240   0.077774  -0.012432
C  -0.270182  -0.677742   0.061045
H  -4.803364  -0.260731  -0.010595
H  -3.938491   1.279259   0.100559
H  -2.685946  -1.541062   0.038299
H  -1.273411   1.167412  -0.097171
H  -0.302115  -1.720672   0.090011
H   0.671017  -0.206995  -0.020387

