%chk=/home/boittier/MDCM/nms_sampling/butadiene_geom.xyz.dir/butadiene_1000.chk
%nproc=8
%mem=16000MB
#p B2PLYPD3/Def2QZVP 

butadiene

0 1
C  -3.825128   0.212661  -0.011364
C  -2.699774  -0.485391   0.066390
C  -1.390323   0.094235   0.045698
C  -0.289713  -0.672046  -0.008419
H  -4.756942  -0.324955  -0.001480
H  -3.816305   1.292751  -0.112051
H  -2.840959  -1.556451   0.262073
H  -1.309779   1.163645   0.107260
H  -0.356028  -1.718474  -0.059487
H   0.720365  -0.244163   0.090169

