%chk=/home/boittier/MDCM/nms_sampling/butadiene_geom.xyz.dir/butadiene_122.chk
%nproc=8
%mem=16000MB
#p B2PLYPD3/Def2QZVP 

butadiene

0 1
C  -3.844195   0.226156   0.033038
C  -2.733678  -0.507016   0.008470
C  -1.385758   0.066031   0.001219
C  -0.250379  -0.648535   0.052131
H  -4.833292  -0.224386   0.050571
H  -3.752381   1.322851   0.061806
H  -2.785031  -1.606751   0.060414
H  -1.292755   1.150698  -0.064622
H  -0.267384  -1.732419   0.110445
H   0.691130  -0.162428  -0.031586
