%chk=/home/boittier/MDCM/nms_sampling/butadiene_geom.xyz.dir/butadiene_1868.chk
%nproc=8
%mem=16000MB
#p B2PLYPD3/Def2QZVP 

butadiene

0 1
C  -3.824670   0.217398  -0.017691
C  -2.695937  -0.485075   0.077643
C  -1.397633   0.069193   0.051306
C  -0.284582  -0.657481   0.004221
H  -4.803827  -0.250103  -0.129470
H  -3.883655   1.301611   0.037929
H  -2.770350  -1.585303   0.167808
H  -1.280779   1.138719  -0.005959
H  -0.389059  -1.754365  -0.007731
H   0.739737  -0.188680  -0.105071

