%chk=/home/boittier/MDCM/nms_sampling/butadiene_geom.xyz.dir/butadiene_1344.chk
%nproc=8
%mem=16000MB
#p B2PLYPD3/Def2QZVP 

butadiene

0 1
C  -3.841921   0.237145   0.052854
C  -2.725486  -0.500793  -0.021315
C  -1.382801   0.064724  -0.023839
C  -0.258250  -0.649676   0.063081
H  -4.791843  -0.286872   0.202609
H  -3.862944   1.271703  -0.012816
H  -2.831922  -1.603797   0.066742
H  -1.331510   1.118035   0.012737
H  -0.226975  -1.710156   0.141323
H   0.736307  -0.217651   0.091357

