%chk=/home/boittier/MDCM/nms_sampling/butadiene_geom.xyz.dir/butadiene_1894.chk
%nproc=8
%mem=16000MB
#p B2PLYPD3/Def2QZVP 

butadiene

0 1
C  -3.837604   0.196355  -0.002603
C  -2.721117  -0.482064   0.046225
C  -1.383753   0.095114   0.064364
C  -0.278028  -0.664210  -0.007335
H  -4.817435  -0.259874  -0.036644
H  -3.745861   1.318237  -0.004208
H  -2.683755  -1.546242   0.128065
H  -1.256590   1.194837  -0.048986
H  -0.409194  -1.763358   0.139679
H   0.749662  -0.267026  -0.050170

