%chk=/home/boittier/MDCM/nms_sampling/butadiene_geom.xyz.dir/butadiene_359.chk
%nproc=8
%mem=16000MB
#p B2PLYPD3/Def2QZVP 

butadiene

0 1
C  -3.838573   0.233307   0.002863
C  -2.717898  -0.502028   0.065139
C  -1.393672   0.049460   0.027453
C  -0.255808  -0.648871   0.010514
H  -4.849329  -0.212371   0.016627
H  -3.812757   1.304578  -0.111364
H  -2.794339  -1.587791   0.084613
H  -1.335438   1.154078   0.044935
H  -0.230494  -1.717744  -0.010229
H   0.680598  -0.146306   0.059298
