%chk=/home/boittier/MDCM/nms_sampling/butadiene_geom.xyz.dir/butadiene_2032.chk
%nproc=8
%mem=16000MB
#p B2PLYPD3/Def2QZVP 

butadiene

0 1
C  -3.881823   0.185656   0.090299
C  -2.713455  -0.464626  -0.047376
C  -1.359583   0.127189  -0.056077
C  -0.255123  -0.686847   0.073209
H  -4.901221  -0.351742   0.187885
H  -3.904514   1.268394   0.069581
H  -2.826044  -1.508357  -0.023832
H  -1.258132   1.237819  -0.201324
H  -0.238277  -1.813006   0.200919
H   0.816545  -0.333959   0.360037
