%chk=/home/boittier/MDCM/nms_sampling/butadiene_geom.xyz.dir/butadiene_2155.chk
%nproc=8
%mem=16000MB
#p B2PLYPD3/Def2QZVP 

butadiene

0 1
C  -3.890632   0.196055   0.027548
C  -2.733382  -0.478096   0.056001
C  -1.348651   0.121699  -0.008825
C  -0.249469  -0.699594   0.023009
H  -4.761628  -0.255061  -0.065115
H  -3.910536   1.238480  -0.213611
H  -2.639721  -1.530274   0.228341
H  -1.201586   1.251739   0.243331
H  -0.330728  -1.776820  -0.077420
H   0.678854  -0.182651   0.117873

