%chk=/home/boittier/MDCM/nms_sampling/butadiene_geom.xyz.dir/butadiene_67.chk
%nproc=8
%mem=16000MB
#p B2PLYPD3/Def2QZVP 

butadiene

0 1
C  -3.846523   0.222364   0.007221
C  -2.725412  -0.500346   0.053494
C  -1.375536   0.062858   0.010153
C  -0.256184  -0.649679   0.028641
H  -4.845683  -0.225144   0.030674
H  -3.795386   1.321902  -0.048043
H  -2.810639  -1.591806   0.103042
H  -1.350227   1.140621   0.068148
H  -0.299036  -1.714963  -0.005098
H   0.727797  -0.173335   0.015849

