%chk=/home/boittier/MDCM/nms_sampling/butadiene_geom.xyz.dir/butadiene_816.chk
%nproc=8
%mem=16000MB
#p B2PLYPD3/Def2QZVP 

butadiene

0 1
C  -3.849918   0.212968   0.008289
C  -2.727875  -0.489126   0.044660
C  -1.379306   0.080759   0.022682
C  -0.255876  -0.664948   0.025589
H  -4.839305  -0.249263   0.035136
H  -3.819886   1.311710   0.012050
H  -2.774617  -1.565985   0.061409
H  -1.309419   1.153641  -0.053213
H  -0.249028  -1.727993   0.045010
H   0.733560  -0.197318   0.017823
