%chk=/home/boittier/MDCM/nms_sampling/butadiene_geom.xyz.dir/butadiene_2735.chk
%nproc=8
%mem=16000MB
#p B2PLYPD3/Def2QZVP 

butadiene

0 1
C  -3.802464   0.245252  -0.025446
C  -2.715955  -0.539869   0.108327
C  -1.394940   0.023717   0.061321
C  -0.294783  -0.614845  -0.006179
H  -4.867690  -0.125061  -0.074147
H  -3.777797   1.359848  -0.211082
H  -2.853063  -1.587360   0.224706
H  -1.222510   1.142706   0.022031
H  -0.214742  -1.727886  -0.316864
H   0.627679  -0.088271   0.078070
