%chk=/home/boittier/MDCM/nms_sampling/butadiene_geom.xyz.dir/butadiene_2230.chk
%nproc=8
%mem=16000MB
#p B2PLYPD3/Def2QZVP 

butadiene

0 1
C  -3.820605   0.262348   0.071737
C  -2.708477  -0.555191  -0.045370
C  -1.399951   0.034621  -0.023864
C  -0.261789  -0.618585   0.095761
H  -4.922011  -0.066085  -0.007472
H  -3.706028   1.309898   0.225850
H  -2.847605  -1.650139   0.037747
H  -1.547662   1.141560  -0.221057
H  -0.224047  -1.726725   0.199292
H   0.714932  -0.154528  -0.130284

