%chk=/home/boittier/MDCM/nms_sampling/butadiene_geom.xyz.dir/butadiene_850.chk
%nproc=8
%mem=16000MB
#p B2PLYPD3/Def2QZVP 

butadiene

0 1
C  -3.832245   0.228799   0.035805
C  -2.720652  -0.503616   0.009932
C  -1.395181   0.053494  -0.009685
C  -0.259829  -0.647412   0.059344
H  -4.830792  -0.208693   0.074437
H  -3.743580   1.324565   0.043429
H  -2.810510  -1.599925   0.016767
H  -1.348456   1.134126  -0.029217
H  -0.280329  -1.711741   0.119478
H   0.696505  -0.136282  -0.045212
