%chk=/home/boittier/MDCM/nms_sampling/butadiene_geom.xyz.dir/butadiene_2568.chk
%nproc=8
%mem=16000MB
#p B2PLYPD3/Def2QZVP 

butadiene

0 1
C  -3.837874   0.198929  -0.032632
C  -2.705470  -0.496945   0.093612
C  -1.393327   0.123852   0.067320
C  -0.293404  -0.679318  -0.016336
H  -4.784180  -0.225093  -0.045827
H  -3.664435   1.324099  -0.231976
H  -2.761440  -1.595394   0.425631
H  -1.263215   1.156192   0.194683
H  -0.304653  -1.791867  -0.307704
H   0.715011  -0.209088   0.057539

