%chk=/home/boittier/MDCM/nms_sampling/butadiene_geom.xyz.dir/butadiene_65.chk
%nproc=8
%mem=16000MB
#p B2PLYPD3/Def2QZVP 

butadiene

0 1
C  -3.833729   0.211806   0.031762
C  -2.711022  -0.487473   0.029871
C  -1.391816   0.083855  -0.000594
C  -0.278519  -0.666900   0.043917
H  -4.804099  -0.244433   0.053673
H  -3.823269   1.300906  -0.057433
H  -2.718635  -1.555904   0.013788
H  -1.299919   1.188675  -0.020582
H  -0.308848  -1.740367   0.047363
H   0.723007  -0.237851   0.035418
