%chk=/home/boittier/MDCM/nms_sampling/butadiene_geom.xyz.dir/butadiene_2478.chk
%nproc=8
%mem=16000MB
#p B2PLYPD3/Def2QZVP 

butadiene

0 1
C  -3.842492   0.207113  -0.042094
C  -2.703434  -0.498876   0.111898
C  -1.383120   0.113609   0.034948
C  -0.281232  -0.652798   0.001032
H  -4.751348  -0.371597  -0.069733
H  -3.809820   1.306270   0.085078
H  -2.719794  -1.498868   0.052298
H  -1.258672   1.202887   0.086929
H  -0.544531  -1.791943   0.038484
H   0.806793  -0.448274  -0.120381
