%chk=/home/boittier/MDCM/nms_sampling/butadiene_geom.xyz.dir/butadiene_1125.chk
%nproc=8
%mem=16000MB
#p B2PLYPD3/Def2QZVP 

butadiene

0 1
C  -3.847492   0.234617   0.008945
C  -2.717842  -0.496797   0.041078
C  -1.377458   0.041503   0.035637
C  -0.251265  -0.643730   0.004192
H  -4.826830  -0.287042   0.035560
H  -3.802062   1.301828  -0.108834
H  -2.861473  -1.551542   0.189360
H  -1.361409   1.122507   0.069557
H  -0.316657  -1.716061   0.035508
H   0.677743  -0.127680   0.076105
