%chk=/home/boittier/MDCM/nms_sampling/butadiene_geom.xyz.dir/butadiene_2161.chk
%nproc=8
%mem=16000MB
#p B2PLYPD3/Def2QZVP 

butadiene

0 1
C  -3.846379   0.267415  -0.016518
C  -2.729223  -0.535014   0.088795
C  -1.397275   0.027300   0.080025
C  -0.255206  -0.644818  -0.012771
H  -4.764689  -0.226113   0.018051
H  -3.756846   1.345679  -0.338513
H  -2.791592  -1.619254   0.123866
H  -1.311481   1.156266   0.095676
H  -0.081386  -1.687777  -0.151134
H   0.646398   0.010615  -0.051102

