%chk=/home/boittier/MDCM/nms_sampling/butadiene_geom.xyz.dir/butadiene_2854.chk
%nproc=8
%mem=16000MB
#p B2PLYPD3/Def2QZVP 

butadiene

0 1
C  -3.823097   0.199696  -0.031428
C  -2.713043  -0.493883   0.104096
C  -1.395079   0.146209   0.106174
C  -0.305075  -0.687895  -0.035434
H  -4.858144  -0.251616  -0.153105
H  -3.828123   1.238757  -0.259672
H  -2.600736  -1.585228   0.107247
H  -1.190682   1.213760   0.178998
H  -0.306047  -1.808531   0.067848
H   0.805433  -0.331221  -0.307939

