%chk=/home/boittier/MDCM/nms_sampling/butadiene_geom.xyz.dir/butadiene_1984.chk
%nproc=8
%mem=16000MB
#p B2PLYPD3/Def2QZVP 

butadiene

0 1
C  -3.819086   0.248362   0.087183
C  -2.716692  -0.541357  -0.013419
C  -1.396598   0.044207  -0.044943
C  -0.246686  -0.630785   0.091106
H  -4.939741  -0.062835  -0.048017
H  -3.759082   1.275631   0.138486
H  -2.846459  -1.611370  -0.263369
H  -1.550168   1.159611  -0.292751
H  -0.299248  -1.665859   0.275544
H   0.721221  -0.197206  -0.019310

