%chk=/home/boittier/MDCM/nms_sampling/butadiene_geom.xyz.dir/butadiene_1508.chk
%nproc=8
%mem=16000MB
#p B2PLYPD3/Def2QZVP 

butadiene

0 1
C  -3.840639   0.208944   0.000027
C  -2.712939  -0.495290   0.074805
C  -1.379066   0.093134   0.040691
C  -0.287568  -0.665685   0.001338
H  -4.820816  -0.257835  -0.134860
H  -3.804533   1.295667  -0.097074
H  -2.740461  -1.559192   0.137476
H  -1.208847   1.199492   0.084075
H  -0.320207  -1.712718   0.022706
H   0.726994  -0.251445  -0.060331
