%chk=/home/boittier/MDCM/nms_sampling/butadiene_geom.xyz.dir/butadiene_2026.chk
%nproc=8
%mem=16000MB
#p B2PLYPD3/Def2QZVP 

butadiene

0 1
C  -3.816223   0.257446  -0.035282
C  -2.735645  -0.568525   0.095244
C  -1.394165   0.085984   0.041202
C  -0.262323  -0.640087   0.009631
H  -4.867700  -0.196275   0.058290
H  -3.607124   1.339094  -0.233223
H  -2.828074  -1.620244   0.308020
H  -1.495105   1.136086   0.310991
H  -0.230566  -1.688752  -0.265481
H   0.730080  -0.219321  -0.074737

