%chk=/home/boittier/MDCM/nms_sampling/butadiene_geom.xyz.dir/butadiene_823.chk
%nproc=8
%mem=16000MB
#p B2PLYPD3/Def2QZVP 

butadiene

0 1
C  -3.852108   0.218854  -0.000029
C  -2.718995  -0.491678   0.061029
C  -1.377848   0.086158   0.021065
C  -0.257328  -0.662497   0.022493
H  -4.790280  -0.304781   0.005014
H  -3.844344   1.308760   0.040515
H  -2.775061  -1.576196   0.019493
H  -1.339840   1.175866  -0.049482
H  -0.324345  -1.761657   0.056421
H   0.733618  -0.249620  -0.002314
