%chk=/home/boittier/MDCM/nms_sampling/butadiene_geom.xyz.dir/butadiene_2027.chk
%nproc=8
%mem=16000MB
#p B2PLYPD3/Def2QZVP 

butadiene

0 1
C  -3.850386   0.211358  -0.049697
C  -2.700128  -0.479236   0.068744
C  -1.378724   0.132879   0.056713
C  -0.275084  -0.689592  -0.002645
H  -4.754026  -0.444059   0.257652
H  -3.832710   1.283569  -0.142721
H  -2.719214  -1.540776   0.304241
H  -1.388714   1.140322   0.304161
H  -0.456305  -1.739776  -0.095735
H   0.786704  -0.372272  -0.065624

