%chk=/home/boittier/MDCM/nms_sampling/butadiene_geom.xyz.dir/butadiene_1725.chk
%nproc=8
%mem=16000MB
#p B2PLYPD3/Def2QZVP 

butadiene

0 1
C  -3.833397   0.212092   0.009789
C  -2.701834  -0.478780   0.062580
C  -1.380195   0.081838   0.028304
C  -0.280865  -0.664753   0.022784
H  -4.783039  -0.276921  -0.064356
H  -3.817521   1.293327  -0.069433
H  -2.769249  -1.582359   0.004992
H  -1.401019   1.170862   0.015059
H  -0.392097  -1.792578   0.063549
H   0.685151  -0.221660  -0.107816

