%chk=/home/boittier/MDCM/nms_sampling/butadiene_geom.xyz.dir/butadiene_1553.chk
%nproc=8
%mem=16000MB
#p B2PLYPD3/Def2QZVP 

butadiene

0 1
C  -3.822826   0.213942   0.058417
C  -2.700364  -0.491338  -0.018662
C  -1.383631   0.087185  -0.003807
C  -0.290622  -0.665009   0.061205
H  -4.763914  -0.282401   0.155241
H  -3.872873   1.332100  -0.078887
H  -2.817984  -1.567771   0.052876
H  -1.340938   1.154442  -0.107932
H  -0.361902  -1.749599   0.044887
H   0.703274  -0.230950   0.099857

