%chk=/home/boittier/MDCM/nms_sampling/butadiene_geom.xyz.dir/butadiene_2756.chk
%nproc=8
%mem=16000MB
#p B2PLYPD3/Def2QZVP 

butadiene

0 1
C  -3.828482   0.210812   0.037510
C  -2.713796  -0.475497   0.009288
C  -1.393909   0.097839  -0.039234
C  -0.271026  -0.668343   0.074250
H  -4.787475  -0.303390  -0.009638
H  -3.899331   1.239645   0.402488
H  -2.695935  -1.577606  -0.071298
H  -1.331819   1.183112  -0.317220
H  -0.400688  -1.715771   0.191232
H   0.794417  -0.379119   0.086164

