%chk=/home/boittier/MDCM/nms_sampling/butadiene_geom.xyz.dir/butadiene_1986.chk
%nproc=8
%mem=16000MB
#p B2PLYPD3/Def2QZVP 

butadiene

0 1
C  -3.780790   0.251697   0.053958
C  -2.735236  -0.558320  -0.034190
C  -1.423096   0.042136  -0.010711
C  -0.271892  -0.603861   0.078030
H  -4.777387  -0.124587   0.260788
H  -3.696248   1.344325  -0.028167
H  -2.909868  -1.652177   0.130847
H  -1.327354   1.183651  -0.138278
H  -0.273918  -1.725655  -0.059834
H   0.733085  -0.240399   0.137783

