%chk=/home/boittier/MDCM/nms_sampling/butadiene_geom.xyz.dir/butadiene_834.chk
%nproc=8
%mem=16000MB
#p B2PLYPD3/Def2QZVP 

butadiene

0 1
C  -3.828831   0.236831   0.028970
C  -2.720821  -0.509077   0.027188
C  -1.393325   0.061952  -0.016542
C  -0.266003  -0.647490   0.050092
H  -4.806708  -0.241572   0.104218
H  -3.780555   1.313817   0.008959
H  -2.786696  -1.599704   0.016553
H  -1.387445   1.117081  -0.013908
H  -0.262958  -1.733525   0.056088
H   0.721537  -0.181139   0.089074

