%chk=/home/boittier/MDCM/nms_sampling/butadiene_geom.xyz.dir/butadiene_2671.chk
%nproc=8
%mem=16000MB
#p B2PLYPD3/Def2QZVP 

butadiene

0 1
C  -3.840830   0.201658  -0.023892
C  -2.692717  -0.489798   0.088898
C  -1.387172   0.146202   0.055768
C  -0.296767  -0.695285  -0.028983
H  -4.841327  -0.253099  -0.194289
H  -3.869119   1.203729   0.077524
H  -2.638470  -1.593656   0.231354
H  -1.181624   1.198762   0.016950
H  -0.409291  -1.774944   0.080056
H   0.718239  -0.303649   0.045691

