%chk=/home/boittier/MDCM/nms_sampling/butadiene_geom.xyz.dir/butadiene_1555.chk
%nproc=8
%mem=16000MB
#p B2PLYPD3/Def2QZVP 

butadiene

0 1
C  -3.848139   0.214880  -0.010039
C  -2.713496  -0.477156   0.074508
C  -1.387213   0.088180   0.031363
C  -0.256750  -0.675145   0.010092
H  -4.767850  -0.324767  -0.003181
H  -3.935589   1.298633   0.021916
H  -2.816215  -1.559198  -0.014948
H  -1.309422   1.186487  -0.013186
H  -0.235849  -1.752926   0.102491
H   0.715542  -0.245752  -0.041954
