%chk=/home/boittier/MDCM/nms_sampling/butadiene_geom.xyz.dir/butadiene_244.chk
%nproc=8
%mem=16000MB
#p B2PLYPD3/Def2QZVP 

butadiene

0 1
C  -3.848927   0.226310   0.012687
C  -2.727500  -0.504633   0.048915
C  -1.378291   0.061291   0.019930
C  -0.253233  -0.652592   0.022066
H  -4.851870  -0.200702  -0.030271
H  -3.763998   1.329959  -0.033210
H  -2.778772  -1.602278   0.083450
H  -1.367926   1.139046   0.035231
H  -0.255562  -1.713186   0.072621
H   0.697015  -0.140510  -0.027720

