%chk=/home/boittier/MDCM/nms_sampling/butadiene_geom.xyz.dir/butadiene_326.chk
%nproc=8
%mem=16000MB
#p B2PLYPD3/Def2QZVP 

butadiene

0 1
C  -3.826858   0.229493   0.033334
C  -2.719979  -0.511188   0.012979
C  -1.392155   0.064034   0.004328
C  -0.271319  -0.652561   0.037302
H  -4.816585  -0.187495   0.061795
H  -3.768505   1.327798  -0.000422
H  -2.773078  -1.589130   0.088112
H  -1.342038   1.132313  -0.035742
H  -0.263348  -1.737076   0.101578
H   0.671610  -0.125954   0.070202
