%chk=/home/boittier/MDCM/nms_sampling/butadiene_geom.xyz.dir/butadiene_2427.chk
%nproc=8
%mem=16000MB
#p B2PLYPD3/Def2QZVP 

butadiene

0 1
C  -3.789392   0.248913  -0.031583
C  -2.716985  -0.528739   0.053996
C  -1.411857   0.053427   0.091772
C  -0.271326  -0.644124  -0.039090
H  -4.759871  -0.170226   0.100529
H  -3.830108   1.311219  -0.169978
H  -2.873665  -1.613357   0.360331
H  -1.483293   1.150377   0.186666
H  -0.255752  -1.674602   0.029016
H   0.668698  -0.192878   0.015431

