%chk=/home/boittier/MDCM/nms_sampling/butadiene_geom.xyz.dir/butadiene_838.chk
%nproc=8
%mem=16000MB
#p B2PLYPD3/Def2QZVP 

butadiene

0 1
C  -3.833002   0.224890   0.023860
C  -2.714354  -0.500957   0.024461
C  -1.392702   0.065874  -0.012359
C  -0.267831  -0.651461   0.046006
H  -4.780776  -0.247942   0.096985
H  -3.749993   1.315128   0.029864
H  -2.804050  -1.567332   0.086965
H  -1.359041   1.154839   0.022530
H  -0.326366  -1.721787   0.057891
H   0.703789  -0.205137   0.074502
