%chk=/home/boittier/MDCM/nms_sampling/butadiene_geom.xyz.dir/butadiene_1307.chk
%nproc=8
%mem=16000MB
#p B2PLYPD3/Def2QZVP 

butadiene

0 1
C  -3.857936   0.203412  -0.001295
C  -2.718826  -0.473549   0.072252
C  -1.375729   0.092120   0.054554
C  -0.263737  -0.676112  -0.000873
H  -4.795293  -0.282826  -0.067362
H  -3.864416   1.309374  -0.104636
H  -2.777747  -1.544795  -0.002491
H  -1.273473   1.139586   0.001462
H  -0.229657  -1.734928   0.104321
H   0.716547  -0.224784  -0.105966
