%chk=/home/boittier/MDCM/nms_sampling/butadiene_geom.xyz.dir/butadiene_86.chk
%nproc=8
%mem=16000MB
#p B2PLYPD3/Def2QZVP 

butadiene

0 1
C  -3.834940   0.212691  -0.000460
C  -2.715711  -0.487148   0.048841
C  -1.388149   0.077710   0.043183
C  -0.277566  -0.657709   0.015804
H  -4.819778  -0.253581  -0.017684
H  -3.800404   1.284915  -0.010501
H  -2.750696  -1.557276   0.129659
H  -1.268949   1.173189  -0.007292
H  -0.304708  -1.759931   0.041323
H   0.726995  -0.229161  -0.080811

