%chk=/home/boittier/MDCM/nms_sampling/butadiene_geom.xyz.dir/butadiene_1292.chk
%nproc=8
%mem=16000MB
#p B2PLYPD3/Def2QZVP 

butadiene

0 1
C  -3.850907   0.243014   0.049393
C  -2.738055  -0.524925   0.005778
C  -1.384746   0.050003  -0.020570
C  -0.240622  -0.633846   0.078341
H  -4.807048  -0.205630   0.062402
H  -3.828033   1.337862   0.069345
H  -2.815902  -1.623193  -0.095433
H  -1.295089   1.134145  -0.156126
H  -0.198589  -1.674348   0.098191
H   0.722369  -0.206282  -0.046685

