%chk=/home/boittier/MDCM/nms_sampling/butadiene_geom.xyz.dir/butadiene_2017.chk
%nproc=8
%mem=16000MB
#p B2PLYPD3/Def2QZVP 

butadiene

0 1
C  -3.830954   0.183724   0.089335
C  -2.692137  -0.463573  -0.021358
C  -1.376919   0.122125  -0.069192
C  -0.306827  -0.699512   0.106906
H  -4.735115  -0.310232   0.088180
H  -3.810362   1.329814   0.029598
H  -2.713649  -1.593258  -0.045622
H  -1.207474   1.236436  -0.222821
H  -0.478647  -1.764586  -0.049163
H   0.593236  -0.190748   0.232423
