%chk=/home/boittier/MDCM/nms_sampling/butadiene_geom.xyz.dir/butadiene_1102.chk
%nproc=8
%mem=16000MB
#p B2PLYPD3/Def2QZVP 

butadiene

0 1
C  -3.819388   0.252653   0.046770
C  -2.732569  -0.530134   0.005515
C  -1.396963   0.059702   0.000414
C  -0.262969  -0.643718   0.054483
H  -4.748549  -0.267420   0.076018
H  -3.799974   1.315625  -0.044061
H  -2.784914  -1.615086   0.008054
H  -1.356509   1.165681  -0.108594
H  -0.289775  -1.736654   0.058220
H   0.723446  -0.144749   0.042003
