%chk=/home/boittier/MDCM/nms_sampling/butadiene_geom.xyz.dir/butadiene_1161.chk
%nproc=8
%mem=16000MB
#p B2PLYPD3/Def2QZVP 

butadiene

0 1
C  -3.857067   0.206604   0.034216
C  -2.718643  -0.493245   0.017402
C  -1.365098   0.086894  -0.023085
C  -0.272851  -0.657824   0.063276
H  -4.834722  -0.228155   0.059900
H  -3.873979   1.316965   0.012752
H  -2.764668  -1.578015   0.141530
H  -1.223615   1.161203   0.024709
H  -0.312744  -1.761033  -0.038787
H   0.752335  -0.223613   0.057529

