%chk=/home/boittier/MDCM/nms_sampling/butadiene_geom.xyz.dir/butadiene_2744.chk
%nproc=8
%mem=16000MB
#p B2PLYPD3/Def2QZVP 

butadiene

0 1
C  -3.813717   0.265177   0.079830
C  -2.710651  -0.532835  -0.039594
C  -1.389516   0.036440   0.001125
C  -0.270763  -0.630855   0.060355
H  -4.765006  -0.239929   0.156025
H  -3.721829   1.290521  -0.188714
H  -2.986247  -1.694172   0.089488
H  -1.444058   1.063691  -0.122572
H  -0.309691  -1.700067   0.026289
H   0.613199  -0.039957   0.157770

