%chk=/home/boittier/MDCM/nms_sampling/butadiene_geom.xyz.dir/butadiene_749.chk
%nproc=8
%mem=16000MB
#p B2PLYPD3/Def2QZVP 

butadiene

0 1
C  -3.838619   0.222268   0.024830
C  -2.711092  -0.490801   0.028583
C  -1.391534   0.065485   0.009741
C  -0.270076  -0.652125   0.028442
H  -4.771301  -0.274336   0.055007
H  -3.817307   1.313042  -0.015587
H  -2.772700  -1.577682   0.068590
H  -1.301172   1.153781  -0.043753
H  -0.328797  -1.719032   0.076148
H   0.719811  -0.238818   0.099710

