%chk=/home/boittier/MDCM/nms_sampling/butadiene_geom.xyz.dir/butadiene_2069.chk
%nproc=8
%mem=16000MB
#p B2PLYPD3/Def2QZVP 

butadiene

0 1
C  -3.818750   0.208795   0.052867
C  -2.703871  -0.504432  -0.039443
C  -1.370793   0.093398  -0.048390
C  -0.293355  -0.647483   0.090725
H  -4.896068  -0.256526   0.187938
H  -3.843573   1.278632   0.328458
H  -2.860569  -1.570588  -0.080926
H  -1.317360   1.215661  -0.131344
H  -0.449123  -1.761689   0.371017
H   0.779861  -0.318744  -0.054879
