%chk=/home/boittier/MDCM/nms_sampling/butadiene_geom.xyz.dir/butadiene_1085.chk
%nproc=8
%mem=16000MB
#p B2PLYPD3/Def2QZVP 

butadiene

0 1
C  -3.838019   0.224143  -0.006678
C  -2.707607  -0.489260   0.054223
C  -1.391240   0.081828   0.033833
C  -0.268448  -0.670128   0.012322
H  -4.760276  -0.321883   0.017440
H  -3.823430   1.307509   0.033763
H  -2.773585  -1.527539   0.076516
H  -1.379142   1.146461   0.037649
H  -0.300257  -1.744529   0.131070
H   0.684961  -0.217764  -0.079123

