%chk=/home/boittier/MDCM/nms_sampling/butadiene_geom.xyz.dir/butadiene_18.chk
%nproc=8
%mem=16000MB
#p B2PLYPD3/Def2QZVP 

butadiene

0 1
C  -3.830985   0.238992   0.000179
C  -2.715583  -0.516093   0.055502
C  -1.388939   0.057898   0.027128
C  -0.264485  -0.647090   0.015569
H  -4.800135  -0.220955  -0.010985
H  -3.793344   1.336731   0.016632
H  -2.796565  -1.594136   0.073745
H  -1.400921   1.117447   0.023334
H  -0.297336  -1.716959   0.099845
H   0.673826  -0.157670  -0.043230
