%chk=/home/boittier/MDCM/nms_sampling/butadiene_geom.xyz.dir/butadiene_640.chk
%nproc=8
%mem=16000MB
#p B2PLYPD3/Def2QZVP 

butadiene

0 1
C  -3.832257   0.227468   0.016454
C  -2.722534  -0.509093   0.051104
C  -1.386893   0.063038   0.019124
C  -0.259816  -0.647159   0.022618
H  -4.823579  -0.217666   0.012267
H  -3.769872   1.315367  -0.109916
H  -2.811118  -1.571044   0.065292
H  -1.378528   1.142343   0.019973
H  -0.332428  -1.715730   0.003844
H   0.720105  -0.185238   0.043475
