%chk=/home/boittier/MDCM/nms_sampling/butadiene_geom.xyz.dir/butadiene_2713.chk
%nproc=8
%mem=16000MB
#p B2PLYPD3/Def2QZVP 

butadiene

0 1
C  -3.819895   0.263504  -0.053600
C  -2.731432  -0.541096   0.123543
C  -1.401607   0.041196   0.046554
C  -0.246243  -0.645166  -0.021732
H  -4.830080  -0.150000  -0.014814
H  -3.731130   1.325243  -0.132009
H  -2.838773  -1.594785   0.241572
H  -1.465189   1.087191   0.324120
H  -0.122529  -1.782639  -0.095033
H   0.553499   0.040459  -0.041364
