%chk=/home/boittier/MDCM/nms_sampling/butadiene_geom.xyz.dir/butadiene_1602.chk
%nproc=8
%mem=16000MB
#p B2PLYPD3/Def2QZVP 

butadiene

0 1
C  -3.847703   0.227388  -0.009612
C  -2.718349  -0.498370   0.076024
C  -1.372945   0.067163   0.048220
C  -0.268060  -0.656488  -0.014913
H  -4.779362  -0.264521  -0.005133
H  -3.913853   1.329559  -0.123813
H  -2.770267  -1.596415   0.158703
H  -1.289801   1.151651   0.034034
H  -0.270591  -1.724121  -0.029561
H   0.694404  -0.188146   0.138731

