%chk=/home/boittier/MDCM/nms_sampling/butadiene_geom.xyz.dir/butadiene_1757.chk
%nproc=8
%mem=16000MB
#p B2PLYPD3/Def2QZVP 

butadiene

0 1
C  -3.839475   0.221055   0.002639
C  -2.714635  -0.486653   0.041470
C  -1.378224   0.074677   0.028227
C  -0.264798  -0.663778   0.011484
H  -4.811493  -0.284739   0.103607
H  -3.935599   1.312988  -0.068957
H  -2.828733  -1.577487   0.125833
H  -1.353022   1.126211   0.088083
H  -0.263153  -1.728027   0.081747
H   0.735487  -0.202931   0.032794

