%chk=/home/boittier/MDCM/nms_sampling/butadiene_geom.xyz.dir/butadiene_35.chk
%nproc=8
%mem=16000MB
#p B2PLYPD3/Def2QZVP 

butadiene

0 1
C  -3.841619   0.239998   0.038715
C  -2.738519  -0.515866   0.013999
C  -1.383578   0.061519  -0.006200
C  -0.246777  -0.647376   0.048905
H  -4.788527  -0.251929   0.097080
H  -3.820464   1.312745  -0.028387
H  -2.786346  -1.602998   0.017166
H  -1.334170   1.141340  -0.049733
H  -0.265527  -1.706874   0.076691
H   0.718511  -0.168955   0.072752
