%chk=/home/boittier/MDCM/nms_sampling/butadiene_geom.xyz.dir/butadiene_1446.chk
%nproc=8
%mem=16000MB
#p B2PLYPD3/Def2QZVP 

butadiene

0 1
C  -3.814832   0.244558   0.045970
C  -2.710872  -0.529617   0.001213
C  -1.396609   0.067755  -0.010091
C  -0.278912  -0.650577   0.076810
H  -4.817250  -0.170028   0.062622
H  -3.805242   1.301744   0.079956
H  -2.840907  -1.620815  -0.093631
H  -1.399319   1.108517  -0.144579
H  -0.241016  -1.698783   0.142670
H   0.698685  -0.141893  -0.129948
