%chk=/home/boittier/MDCM/nms_sampling/butadiene_geom.xyz.dir/butadiene_1533.chk
%nproc=8
%mem=16000MB
#p B2PLYPD3/Def2QZVP 

butadiene

0 1
C  -3.841077   0.199620   0.047966
C  -2.710516  -0.480889  -0.005369
C  -1.386919   0.097284  -0.030020
C  -0.268533  -0.662582   0.072660
H  -4.766465  -0.246151   0.141372
H  -3.842736   1.273920   0.095154
H  -2.793818  -1.562344   0.027322
H  -1.307702   1.185589  -0.150827
H  -0.416578  -1.763896   0.039038
H   0.791500  -0.314437   0.146418

