%chk=/home/boittier/MDCM/nms_sampling/butadiene_geom.xyz.dir/butadiene_1441.chk
%nproc=8
%mem=16000MB
#p B2PLYPD3/Def2QZVP 

butadiene

0 1
C  -3.847490   0.228358   0.034583
C  -2.741306  -0.512304   0.029174
C  -1.371883   0.064002  -0.028963
C  -0.241829  -0.650094   0.069061
H  -4.853201  -0.175576   0.033578
H  -3.790188   1.318678   0.056078
H  -2.835184  -1.634597  -0.022736
H  -1.345177   1.152377  -0.023753
H  -0.215819  -1.746620   0.049692
H   0.646589  -0.101836  -0.019533
