%chk=/home/boittier/MDCM/nms_sampling/butadiene_geom.xyz.dir/butadiene_226.chk
%nproc=8
%mem=16000MB
#p B2PLYPD3/Def2QZVP 

butadiene

0 1
C  -3.853572   0.223358   0.000013
C  -2.720634  -0.496302   0.048639
C  -1.377405   0.071737   0.040011
C  -0.256925  -0.652820   0.015774
H  -4.830162  -0.253005   0.013844
H  -3.864309   1.301355  -0.063374
H  -2.763315  -1.583451   0.160340
H  -1.322933   1.140061   0.044634
H  -0.301795  -1.744764   0.002778
H   0.769457  -0.220947  -0.051285

