%chk=/home/boittier/MDCM/nms_sampling/butadiene_geom.xyz.dir/butadiene_1809.chk
%nproc=8
%mem=16000MB
#p B2PLYPD3/Def2QZVP 

butadiene

0 1
C  -3.822424   0.227390   0.037340
C  -2.720330  -0.532489   0.023034
C  -1.392778   0.079653  -0.029923
C  -0.264650  -0.648872   0.061687
H  -4.893171  -0.115454   0.062064
H  -3.756374   1.332266  -0.015870
H  -2.815417  -1.585703   0.063305
H  -1.374968   1.152198   0.066691
H  -0.254113  -1.746799   0.029763
H   0.675724  -0.173203   0.040305
