%chk=/home/boittier/MDCM/nms_sampling/butadiene_geom.xyz.dir/butadiene_988.chk
%nproc=8
%mem=16000MB
#p B2PLYPD3/Def2QZVP 

butadiene

0 1
C  -3.834162   0.224432  -0.001851
C  -2.733344  -0.515287   0.062092
C  -1.393518   0.072497   0.060245
C  -0.253986  -0.652835  -0.003537
H  -4.851853  -0.162282  -0.128164
H  -3.694913   1.340742  -0.096630
H  -2.755191  -1.573639   0.209136
H  -1.391825   1.112381   0.050260
H  -0.244487  -1.701107   0.009530
H   0.711868  -0.176717  -0.088028
