%chk=/home/boittier/MDCM/nms_sampling/butadiene_geom.xyz.dir/butadiene_2425.chk
%nproc=8
%mem=16000MB
#p B2PLYPD3/Def2QZVP 

butadiene

0 1
C  -3.784771   0.256160  -0.034210
C  -2.709097  -0.548262   0.067184
C  -1.423068   0.037372   0.079771
C  -0.282473  -0.626808  -0.031906
H  -4.818990  -0.112380   0.156381
H  -3.728153   1.317558  -0.263499
H  -2.970548  -1.683084   0.302656
H  -1.370088   1.165715   0.289005
H  -0.242003  -1.711257  -0.012321
H   0.708541  -0.054219  -0.008517

