%chk=/home/boittier/MDCM/nms_sampling/butadiene_geom.xyz.dir/butadiene_1987.chk
%nproc=8
%mem=16000MB
#p B2PLYPD3/Def2QZVP 

butadiene

0 1
C  -3.866015   0.177712  -0.063019
C  -2.700797  -0.477690   0.130784
C  -1.365091   0.124488   0.093933
C  -0.281528  -0.679888  -0.014635
H  -4.844175  -0.218710  -0.062775
H  -3.763829   1.261768  -0.095448
H  -2.676332  -1.483215   0.047200
H  -1.177307   1.208773   0.074856
H  -0.509784  -1.832578  -0.081775
H   0.692749  -0.249914  -0.309828
