%chk=/home/boittier/MDCM/nms_sampling/butadiene_geom.xyz.dir/butadiene_2665.chk
%nproc=8
%mem=16000MB
#p B2PLYPD3/Def2QZVP 

butadiene

0 1
C  -3.825527   0.231258   0.106166
C  -2.750126  -0.503814  -0.049188
C  -1.405212   0.024207  -0.074209
C  -0.236059  -0.630208   0.090920
H  -4.811261  -0.173326   0.122529
H  -3.740427   1.312535   0.018724
H  -2.947633  -1.558265   0.010249
H  -1.258315   1.135612  -0.177304
H  -0.061519  -1.661172   0.099531
H   0.630429  -0.134158   0.362790

