%chk=/home/boittier/MDCM/nms_sampling/butadiene_geom.xyz.dir/butadiene_2465.chk
%nproc=8
%mem=16000MB
#p B2PLYPD3/Def2QZVP 

butadiene

0 1
C  -3.876127   0.196931   0.091362
C  -2.693309  -0.449821  -0.061342
C  -1.366241   0.105442  -0.063139
C  -0.277809  -0.693424   0.120306
H  -4.837886  -0.352437   0.255656
H  -4.006193   1.270048   0.037484
H  -2.677943  -1.581547   0.010960
H  -1.166300   1.222820  -0.183669
H  -0.252267  -1.753358   0.000048
H   0.674726  -0.288913   0.152043
