%chk=/home/boittier/MDCM/nms_sampling/butadiene_geom.xyz.dir/butadiene_611.chk
%nproc=8
%mem=16000MB
#p B2PLYPD3/Def2QZVP 

butadiene

0 1
C  -3.845307   0.219112   0.017146
C  -2.721295  -0.493539   0.033674
C  -1.386380   0.081698   0.031522
C  -0.261154  -0.665653   0.025894
H  -4.810172  -0.251944   0.050862
H  -3.833453   1.288184  -0.093287
H  -2.782110  -1.564796   0.108211
H  -1.290322   1.157777  -0.026939
H  -0.251902  -1.746363  -0.004892
H   0.721092  -0.181967   0.013659
