%chk=/home/boittier/MDCM/nms_sampling/butadiene_geom.xyz.dir/butadiene_430.chk
%nproc=8
%mem=16000MB
#p B2PLYPD3/Def2QZVP 

butadiene

0 1
C  -3.843858   0.226496   0.010960
C  -2.724021  -0.505886   0.046245
C  -1.382284   0.060303   0.044315
C  -0.252592  -0.645224   0.013814
H  -4.823775  -0.218357  -0.041253
H  -3.791386   1.323470  -0.061878
H  -2.823441  -1.607661   0.086705
H  -1.337852   1.146363  -0.038760
H  -0.318671  -1.719919   0.057128
H   0.713697  -0.174907  -0.054123

