%chk=/home/boittier/MDCM/nms_sampling/butadiene_geom.xyz.dir/butadiene_2397.chk
%nproc=8
%mem=16000MB
#p B2PLYPD3/Def2QZVP 

butadiene

0 1
C  -3.857965   0.275134   0.004483
C  -2.733352  -0.549385   0.090409
C  -1.384642   0.023145   0.033984
C  -0.224210  -0.612569  -0.005248
H  -4.881930  -0.191361  -0.013830
H  -3.805328   1.315156  -0.306292
H  -2.761611  -1.631228   0.086278
H  -1.413390   1.033297   0.094124
H  -0.303554  -1.716177  -0.139501
H   0.763501  -0.106971   0.168301

