%chk=/home/boittier/MDCM/nms_sampling/butadiene_geom.xyz.dir/butadiene_1744.chk
%nproc=8
%mem=16000MB
#p B2PLYPD3/Def2QZVP 

butadiene

0 1
C  -3.836753   0.212940   0.038408
C  -2.699522  -0.492913   0.009985
C  -1.386208   0.079380   0.002448
C  -0.276582  -0.657824   0.039106
H  -4.872915  -0.205483   0.009910
H  -3.762626   1.284129   0.080234
H  -2.811166  -1.595658   0.040582
H  -1.335372   1.136941  -0.121414
H  -0.358543  -1.711795   0.162751
H   0.700924  -0.222518   0.063632

