%chk=/home/boittier/MDCM/nms_sampling/butadiene_geom.xyz.dir/butadiene_2537.chk
%nproc=8
%mem=16000MB
#p B2PLYPD3/Def2QZVP 

butadiene

0 1
C  -3.803526   0.236634  -0.034632
C  -2.735764  -0.519326   0.075262
C  -1.392876   0.067989   0.074650
C  -0.273572  -0.651629  -0.023014
H  -4.774619  -0.312727   0.248690
H  -3.699923   1.297411  -0.234674
H  -2.907434  -1.524490   0.075467
H  -1.322291   1.144366   0.139648
H  -0.288455  -1.689414   0.023254
H   0.659421  -0.132224   0.023362

