%chk=/home/boittier/MDCM/nms_sampling/butadiene_geom.xyz.dir/butadiene_1619.chk
%nproc=8
%mem=16000MB
#p B2PLYPD3/Def2QZVP 

butadiene

0 1
C  -3.826838   0.213067   0.027059
C  -2.724299  -0.498624   0.031812
C  -1.382060   0.099909   0.005334
C  -0.278750  -0.660984   0.032169
H  -4.767890  -0.299181  -0.015637
H  -3.825764   1.304369   0.072520
H  -2.767495  -1.587043   0.035234
H  -1.280304   1.164341  -0.125724
H  -0.417185  -1.748693   0.099354
H   0.792752  -0.263929   0.093744
