%chk=/home/boittier/MDCM/nms_sampling/butadiene_geom.xyz.dir/butadiene_1065.chk
%nproc=8
%mem=16000MB
#p B2PLYPD3/Def2QZVP 

butadiene

0 1
C  -3.828131   0.231675  -0.000965
C  -2.703508  -0.513853   0.049126
C  -1.392738   0.072867   0.053600
C  -0.277556  -0.657425   0.001249
H  -4.834147  -0.214236   0.038310
H  -3.820065   1.327050  -0.178732
H  -2.821156  -1.574700   0.236415
H  -1.365703   1.159747   0.098057
H  -0.226093  -1.756917  -0.055132
H   0.667649  -0.163309   0.012209
