%chk=/home/boittier/MDCM/nms_sampling/butadiene_geom.xyz.dir/butadiene_2806.chk
%nproc=8
%mem=16000MB
#p B2PLYPD3/Def2QZVP 

butadiene

0 1
C  -3.861925   0.177402  -0.017959
C  -2.684849  -0.459578   0.070448
C  -1.363509   0.128945   0.094455
C  -0.291858  -0.697788  -0.019493
H  -4.887122  -0.185901   0.015393
H  -3.882290   1.219354  -0.309891
H  -2.715375  -1.556031   0.281712
H  -1.374307   1.267253   0.086046
H  -0.346306  -1.799066  -0.181663
H   0.773134  -0.313227  -0.026008
