%chk=/home/boittier/MDCM/nms_sampling/butadiene_geom.xyz.dir/butadiene_63.chk
%nproc=8
%mem=16000MB
#p B2PLYPD3/Def2QZVP 

butadiene

0 1
C  -3.833479   0.220076   0.044181
C  -2.712487  -0.489883   0.014173
C  -1.389917   0.079949  -0.004448
C  -0.277378  -0.664648   0.045993
H  -4.816202  -0.259346   0.039602
H  -3.812201   1.293555  -0.028536
H  -2.706396  -1.574002   0.038144
H  -1.314249   1.143647  -0.084196
H  -0.313969  -1.758368   0.061387
H   0.704901  -0.191709   0.101823
