%chk=/home/boittier/MDCM/nms_sampling/butadiene_geom.xyz.dir/butadiene_1253.chk
%nproc=8
%mem=16000MB
#p B2PLYPD3/Def2QZVP 

butadiene

0 1
C  -3.849503   0.214472   0.024316
C  -2.719528  -0.471422   0.029257
C  -1.369444   0.096272  -0.027073
C  -0.258258  -0.680433   0.049463
H  -4.759749  -0.350617   0.131592
H  -3.944345   1.269190   0.009737
H  -2.797209  -1.592728   0.074546
H  -1.350343   1.167699   0.070651
H  -0.310897  -1.765809   0.038787
H   0.694069  -0.224904   0.125855

