%chk=/home/boittier/MDCM/nms_sampling/butadiene_geom.xyz.dir/butadiene_1177.chk
%nproc=8
%mem=16000MB
#p B2PLYPD3/Def2QZVP 

butadiene

0 1
C  -3.847742   0.222990   0.011045
C  -2.718733  -0.488300   0.023385
C  -1.395334   0.046254   0.034252
C  -0.252533  -0.648417   0.032064
H  -4.811378  -0.214561   0.076499
H  -3.795712   1.325992  -0.072440
H  -2.829308  -1.556709   0.221342
H  -1.315060   1.100807   0.027480
H  -0.186581  -1.696969  -0.053155
H   0.701307  -0.165182  -0.037403
