%chk=/home/boittier/MDCM/nms_sampling/butadiene_geom.xyz.dir/butadiene_354.chk
%nproc=8
%mem=16000MB
#p B2PLYPD3/Def2QZVP 

butadiene

0 1
C  -3.838235   0.220222   0.023106
C  -2.701984  -0.498030   0.024621
C  -1.386684   0.083681   0.004655
C  -0.281920  -0.663082   0.044632
H  -4.809742  -0.234152   0.080876
H  -3.849361   1.305441  -0.033737
H  -2.745003  -1.592901   0.078644
H  -1.299946   1.165460   0.034909
H  -0.316023  -1.753971   0.050922
H   0.704227  -0.211422  -0.027761
