%chk=/home/boittier/MDCM/nms_sampling/butadiene_geom.xyz.dir/butadiene_2181.chk
%nproc=8
%mem=16000MB
#p B2PLYPD3/Def2QZVP 

butadiene

0 1
C  -3.864192   0.251810  -0.011101
C  -2.743953  -0.527359   0.083464
C  -1.371791   0.021450   0.100731
C  -0.214253  -0.629553  -0.026616
H  -4.975832  -0.145849  -0.183744
H  -3.714680   1.372026  -0.148363
H  -2.792264  -1.669689   0.073766
H  -1.456995   1.114829  -0.087123
H  -0.176252  -1.689753   0.047422
H   0.631320  -0.040303  -0.145952
