%chk=/home/boittier/MDCM/nms_sampling/butadiene_geom.xyz.dir/butadiene_2111.chk
%nproc=8
%mem=16000MB
#p B2PLYPD3/Def2QZVP 

butadiene

0 1
C  -3.857176   0.177052   0.011370
C  -2.726423  -0.448482   0.045706
C  -1.372144   0.127831  -0.031465
C  -0.258049  -0.694575   0.051701
H  -4.771494  -0.375153   0.161062
H  -3.916101   1.277704   0.124029
H  -2.873346  -1.546718  -0.071184
H  -1.228099   1.205918  -0.031134
H  -0.319390  -1.791423   0.091990
H   0.847376  -0.265712   0.122680

