%chk=/home/boittier/MDCM/nms_sampling/butadiene_geom.xyz.dir/butadiene_1180.chk
%nproc=8
%mem=16000MB
#p B2PLYPD3/Def2QZVP 

butadiene

0 1
C  -3.850981   0.216458   0.000291
C  -2.704782  -0.500746   0.049696
C  -1.378733   0.095882   0.036012
C  -0.265616  -0.667493   0.027090
H  -4.796297  -0.258185   0.085283
H  -3.869264   1.298501  -0.025512
H  -2.696917  -1.529242  -0.029188
H  -1.352452   1.174755  -0.044972
H  -0.460847  -1.760896   0.078071
H   0.755271  -0.256073  -0.103354

