%chk=/home/boittier/MDCM/nms_sampling/butadiene_geom.xyz.dir/butadiene_1274.chk
%nproc=8
%mem=16000MB
#p B2PLYPD3/Def2QZVP 

butadiene

0 1
C  -3.812378   0.250710  -0.024559
C  -2.718738  -0.537593   0.079096
C  -1.390159   0.048128   0.045290
C  -0.280627  -0.627601   0.007354
H  -4.781034  -0.211332   0.060314
H  -3.782047   1.359977  -0.020321
H  -2.823542  -1.630061   0.041307
H  -1.345938   1.106103   0.023236
H  -0.325346  -1.740901   0.019544
H   0.672196  -0.131965  -0.068797
