%chk=/home/boittier/MDCM/nms_sampling/butadiene_geom.xyz.dir/butadiene_758.chk
%nproc=8
%mem=16000MB
#p B2PLYPD3/Def2QZVP 

butadiene

0 1
C  -3.832369   0.211413   0.005777
C  -2.704806  -0.483806   0.055739
C  -1.389155   0.080222   0.046375
C  -0.273021  -0.661154   0.010210
H  -4.800461  -0.247144  -0.010102
H  -3.841215   1.279817  -0.113158
H  -2.802652  -1.563711   0.056585
H  -1.332035   1.161236  -0.002888
H  -0.362268  -1.746173   0.042705
H   0.706766  -0.246749  -0.054636
