%chk=/home/boittier/MDCM/nms_sampling/butadiene_geom.xyz.dir/butadiene_652.chk
%nproc=8
%mem=16000MB
#p B2PLYPD3/Def2QZVP 

butadiene

0 1
C  -3.834665   0.231469  -0.000594
C  -2.720713  -0.514362   0.047130
C  -1.390133   0.056538   0.033461
C  -0.260334  -0.638826   0.020876
H  -4.860019  -0.185373   0.094716
H  -3.788317   1.302448  -0.038747
H  -2.784762  -1.586562   0.068658
H  -1.325943   1.146142  -0.008136
H  -0.312055  -1.736072   0.030261
H   0.728756  -0.182914  -0.013270

