%chk=/home/boittier/MDCM/nms_sampling/butadiene_geom.xyz.dir/butadiene_2474.chk
%nproc=8
%mem=16000MB
#p B2PLYPD3/Def2QZVP 

butadiene

0 1
C  -3.788951   0.253589   0.088917
C  -2.722619  -0.540756  -0.054821
C  -1.421932   0.036059  -0.008982
C  -0.276397  -0.622819   0.066778
H  -4.769121  -0.100213   0.001882
H  -3.764457   1.365306  -0.023073
H  -2.836576  -1.692830   0.143801
H  -1.412988   1.132853  -0.104139
H  -0.203569  -1.705937   0.180799
H   0.708197  -0.156166   0.026415
