%chk=/home/boittier/MDCM/nms_sampling/butadiene_geom.xyz.dir/butadiene_2794.chk
%nproc=8
%mem=16000MB
#p B2PLYPD3/Def2QZVP 

butadiene

0 1
C  -3.856822   0.179945   0.061713
C  -2.708179  -0.458653  -0.033070
C  -1.380259   0.096719  -0.001334
C  -0.285968  -0.670642   0.069024
H  -4.828508  -0.284570  -0.035192
H  -3.817595   1.329111   0.146690
H  -2.613027  -1.470013   0.097313
H  -1.183947   1.213899  -0.157499
H  -0.364559  -1.771855   0.206642
H   0.777693  -0.347847  -0.110815
