%chk=/home/boittier/MDCM/nms_sampling/butadiene_geom.xyz.dir/butadiene_1403.chk
%nproc=8
%mem=16000MB
#p B2PLYPD3/Def2QZVP 

butadiene

0 1
C  -3.814489   0.240349   0.065801
C  -2.714961  -0.513882  -0.007666
C  -1.402676   0.054545  -0.039704
C  -0.266742  -0.647728   0.063208
H  -4.787764  -0.200539   0.020856
H  -3.753320   1.300615   0.039310
H  -2.835690  -1.625473   0.058387
H  -1.407629   1.110776  -0.048603
H  -0.329623  -1.696525   0.130288
H   0.683861  -0.120387   0.152960
