%chk=/home/boittier/MDCM/nms_sampling/butadiene_geom.xyz.dir/butadiene_860.chk
%nproc=8
%mem=16000MB
#p B2PLYPD3/Def2QZVP 

butadiene

0 1
C  -3.828203   0.230394   0.007348
C  -2.721206  -0.515768   0.036418
C  -1.390084   0.057722   0.033137
C  -0.268147  -0.638224   0.010474
H  -4.816792  -0.191261   0.061868
H  -3.798911   1.320857  -0.063624
H  -2.808441  -1.587898   0.172864
H  -1.312534   1.146411   0.044518
H  -0.306674  -1.743141   0.048946
H   0.723969  -0.178465   0.055655
