%chk=/home/boittier/MDCM/nms_sampling/butadiene_geom.xyz.dir/butadiene_2086.chk
%nproc=8
%mem=16000MB
#p B2PLYPD3/Def2QZVP 

butadiene

0 1
C  -3.875957   0.191821   0.058955
C  -2.719210  -0.465906  -0.004286
C  -1.371335   0.109628  -0.057356
C  -0.253478  -0.684548   0.093005
H  -4.844016  -0.328420  -0.007323
H  -3.803139   1.234813   0.237935
H  -2.658521  -1.501038  -0.103290
H  -1.188469   1.254160  -0.093231
H  -0.419610  -1.746780   0.253760
H   0.738663  -0.288085  -0.088992
