%chk=/home/boittier/MDCM/nms_sampling/butadiene_geom.xyz.dir/butadiene_1570.chk
%nproc=8
%mem=16000MB
#p B2PLYPD3/Def2QZVP 

butadiene

0 1
C  -3.826694   0.235391  -0.023606
C  -2.722544  -0.529578   0.085703
C  -1.385461   0.067305   0.042452
C  -0.266143  -0.635490  -0.003805
H  -4.864551  -0.174300   0.040772
H  -3.811812   1.276044  -0.061360
H  -2.829793  -1.595302   0.131983
H  -1.293260   1.139881   0.026704
H  -0.347164  -1.740992  -0.074712
H   0.739884  -0.185966   0.093066

