%chk=/home/boittier/MDCM/nms_sampling/butadiene_geom.xyz.dir/butadiene_2834.chk
%nproc=8
%mem=16000MB
#p B2PLYPD3/Def2QZVP 

butadiene

0 1
C  -3.850731   0.198915   0.083517
C  -2.691502  -0.476440  -0.017557
C  -1.389255   0.096214  -0.080022
C  -0.289000  -0.650793   0.076540
H  -4.711317  -0.282277   0.185167
H  -3.807979   1.270275   0.054578
H  -2.712445  -1.579827  -0.118015
H  -1.240777   1.191480  -0.133584
H  -0.524075  -1.769435   0.177632
H   0.831954  -0.422469   0.397119

