%chk=/home/boittier/MDCM/nms_sampling/butadiene_geom.xyz.dir/butadiene_1343.chk
%nproc=8
%mem=16000MB
#p B2PLYPD3/Def2QZVP 

butadiene

0 1
C  -3.855720   0.204196   0.014807
C  -2.728029  -0.470572   0.039068
C  -1.374833   0.090632   0.053793
C  -0.246155  -0.663182   0.011034
H  -4.792147  -0.299068   0.018953
H  -3.876259   1.281514  -0.183265
H  -2.792107  -1.574327   0.137861
H  -1.360759   1.160921  -0.011624
H  -0.324604  -1.787282  -0.025735
H   0.781952  -0.298799  -0.008163
