%chk=/home/boittier/MDCM/nms_sampling/butadiene_geom.xyz.dir/butadiene_1611.chk
%nproc=8
%mem=16000MB
#p B2PLYPD3/Def2QZVP 

butadiene

0 1
C  -3.829592   0.233959   0.005632
C  -2.729064  -0.532876   0.057264
C  -1.401567   0.077558  -0.003160
C  -0.256305  -0.647499   0.039605
H  -4.848196  -0.160001   0.033575
H  -3.651245   1.324521   0.120815
H  -2.792898  -1.586640  -0.067060
H  -1.370435   1.139687  -0.077242
H  -0.239027  -1.746321   0.103263
H   0.691937  -0.162792   0.000754
