%chk=/home/boittier/MDCM/nms_sampling/butadiene_geom.xyz.dir/butadiene_2802.chk
%nproc=8
%mem=16000MB
#p B2PLYPD3/Def2QZVP 

butadiene

0 1
C  -3.876059   0.222675  -0.048416
C  -2.718073  -0.484948   0.108716
C  -1.359128   0.052758   0.058743
C  -0.233489  -0.643448  -0.018252
H  -4.878060  -0.248271  -0.179186
H  -4.000635   1.321215   0.210712
H  -2.766263  -1.598871   0.167892
H  -1.402524   1.161116  -0.056418
H  -0.312862  -1.731180   0.039561
H   0.780145  -0.291632  -0.057883
