%chk=/home/boittier/MDCM/nms_sampling/butadiene_geom.xyz.dir/butadiene_1841.chk
%nproc=8
%mem=16000MB
#p B2PLYPD3/Def2QZVP 

butadiene

0 1
C  -3.823898   0.236778   0.022791
C  -2.712287  -0.517939   0.025077
C  -1.389733   0.039323  -0.010743
C  -0.280588  -0.636823   0.046068
H  -4.849135  -0.200393   0.125536
H  -3.737330   1.354117   0.069216
H  -2.771952  -1.569813   0.065725
H  -1.328310   1.134627  -0.102336
H  -0.320727  -1.704512   0.003362
H   0.676374  -0.109017   0.178267
