%chk=/home/boittier/MDCM/nms_sampling/butadiene_geom.xyz.dir/butadiene_1674.chk
%nproc=8
%mem=16000MB
#p B2PLYPD3/Def2QZVP 

butadiene

0 1
C  -3.839642   0.244468   0.041739
C  -2.732337  -0.516291   0.011832
C  -1.397851   0.052232   0.000685
C  -0.242918  -0.638012   0.050540
H  -4.787134  -0.223087   0.072271
H  -3.772684   1.312629  -0.013420
H  -2.739587  -1.613508  -0.047423
H  -1.361515   1.103871  -0.095456
H  -0.300952  -1.732186   0.132801
H   0.714079  -0.176775   0.001220

