%chk=/home/boittier/MDCM/nms_sampling/butadiene_geom.xyz.dir/butadiene_809.chk
%nproc=8
%mem=16000MB
#p B2PLYPD3/Def2QZVP 

butadiene

0 1
C  -3.834776   0.216150   0.010777
C  -2.708367  -0.486008   0.045449
C  -1.395710   0.076468   0.026216
C  -0.274323  -0.662083   0.015732
H  -4.810735  -0.270097   0.005324
H  -3.809696   1.284783  -0.035559
H  -2.745723  -1.537811   0.069592
H  -1.280013   1.160934   0.026012
H  -0.316785  -1.739412   0.111400
H   0.708948  -0.228401  -0.012898
