%chk=/home/boittier/MDCM/nms_sampling/butadiene_geom.xyz.dir/butadiene_930.chk
%nproc=8
%mem=16000MB
#p B2PLYPD3/Def2QZVP 

butadiene

0 1
C  -3.847672   0.219322   0.030413
C  -2.724404  -0.495035   0.016354
C  -1.378923   0.079817   0.000711
C  -0.257104  -0.658566   0.045901
H  -4.789346  -0.262696   0.075518
H  -3.884645   1.298172   0.064125
H  -2.770582  -1.577929   0.016210
H  -1.296685   1.166628  -0.116587
H  -0.316536  -1.719087   0.101136
H   0.744905  -0.252442   0.056277
