%chk=/home/boittier/MDCM/nms_sampling/butadiene_geom.xyz.dir/butadiene_1565.chk
%nproc=8
%mem=16000MB
#p B2PLYPD3/Def2QZVP 

butadiene

0 1
C  -3.821258   0.241284  -0.007373
C  -2.711782  -0.527954   0.069526
C  -1.406057   0.069279   0.019513
C  -0.273246  -0.646112   0.024765
H  -4.781994  -0.228681   0.012681
H  -3.786402   1.350929  -0.085267
H  -2.811551  -1.595223   0.171293
H  -1.328741   1.121275   0.132768
H  -0.259794  -1.695043  -0.098994
H   0.717940  -0.211655  -0.031039
