%chk=/home/boittier/MDCM/nms_sampling/butadiene_geom.xyz.dir/butadiene_2769.chk
%nproc=8
%mem=16000MB
#p B2PLYPD3/Def2QZVP 

butadiene

0 1
C  -3.883967   0.191926   0.040773
C  -2.706437  -0.461692   0.033256
C  -1.350614   0.089439  -0.054531
C  -0.250424  -0.673823   0.084399
H  -4.891963  -0.290428   0.180619
H  -3.965211   1.307549  -0.073133
H  -2.814391  -1.522540  -0.051873
H  -1.396350   1.196448   0.008686
H  -0.329891  -1.739529  -0.121724
H   0.858999  -0.299239   0.152258

