%chk=/home/boittier/MDCM/nms_sampling/butadiene_geom.xyz.dir/butadiene_782.chk
%nproc=8
%mem=16000MB
#p B2PLYPD3/Def2QZVP 

butadiene

0 1
C  -3.835370   0.224167   0.035177
C  -2.706466  -0.499834   0.009526
C  -1.385589   0.082496   0.001987
C  -0.277089  -0.666153   0.038390
H  -4.817561  -0.257809   0.053121
H  -3.792893   1.302167   0.032590
H  -2.772742  -1.577821   0.079186
H  -1.340025   1.142503  -0.050977
H  -0.311863  -1.733285   0.134135
H   0.666401  -0.175559   0.066244

