%chk=/home/boittier/MDCM/nms_sampling/butadiene_geom.xyz.dir/butadiene_1983.chk
%nproc=8
%mem=16000MB
#p B2PLYPD3/Def2QZVP 

butadiene

0 1
C  -3.839162   0.244651   0.047899
C  -2.755643  -0.541662   0.002810
C  -1.404384   0.031791  -0.043855
C  -0.230950  -0.623917   0.075910
H  -4.855785  -0.123278   0.018297
H  -3.692067   1.343419   0.070040
H  -2.839099  -1.595532   0.242745
H  -1.186382   1.169829  -0.001747
H  -0.114350  -1.632218  -0.104064
H   0.673058  -0.122252   0.154279

