%chk=/home/boittier/MDCM/nms_sampling/butadiene_geom.xyz.dir/butadiene_1510.chk
%nproc=8
%mem=16000MB
#p B2PLYPD3/Def2QZVP 

butadiene

0 1
C  -3.844803   0.246911  -0.006501
C  -2.731193  -0.537201   0.059777
C  -1.387359   0.048172   0.059550
C  -0.240227  -0.633997   0.010628
H  -4.867567  -0.165241  -0.000460
H  -3.824689   1.334389  -0.070441
H  -2.811905  -1.611828   0.089082
H  -1.332714   1.164956  -0.064314
H  -0.255296  -1.711255  -0.024758
H   0.729609  -0.137265  -0.078203
