%chk=/home/boittier/MDCM/nms_sampling/butadiene_geom.xyz.dir/butadiene_1914.chk
%nproc=8
%mem=16000MB
#p B2PLYPD3/Def2QZVP 

butadiene

0 1
C  -3.834314   0.243547   0.051934
C  -2.727018  -0.536944  -0.013638
C  -1.395389   0.075247   0.005293
C  -0.254764  -0.646518   0.050381
H  -4.770954  -0.220524   0.135713
H  -3.760658   1.345047  -0.051991
H  -2.765453  -1.604814   0.057568
H  -1.361370   1.156645  -0.122564
H  -0.318482  -1.720277   0.079235
H   0.715506  -0.199736   0.103368

