%chk=/home/boittier/MDCM/nms_sampling/butadiene_geom.xyz.dir/butadiene_1048.chk
%nproc=8
%mem=16000MB
#p B2PLYPD3/Def2QZVP 

butadiene

0 1
C  -3.850952   0.223170   0.015059
C  -2.719726  -0.482130   0.027386
C  -1.377278   0.078432  -0.000429
C  -0.258530  -0.671862   0.034293
H  -4.779876  -0.338569   0.071410
H  -3.862498   1.301107   0.081452
H  -2.783214  -1.554089   0.146845
H  -1.354477   1.121882  -0.019862
H  -0.272870  -1.703936   0.048689
H   0.715939  -0.197624   0.111451

