%chk=/home/boittier/MDCM/nms_sampling/butadiene_geom.xyz.dir/butadiene_535.chk
%nproc=8
%mem=16000MB
#p B2PLYPD3/Def2QZVP 

butadiene

0 1
C  -3.835973   0.211846   0.031094
C  -2.712867  -0.492231   0.029827
C  -1.380715   0.090321  -0.004005
C  -0.279420  -0.668380   0.039972
H  -4.797562  -0.249778   0.028575
H  -3.814185   1.304210  -0.035976
H  -2.744411  -1.569043   0.058150
H  -1.285073   1.159256   0.012528
H  -0.348059  -1.738810   0.063632
H   0.676728  -0.205148   0.052653

