%chk=/home/boittier/MDCM/nms_sampling/butadiene_geom.xyz.dir/butadiene_144.chk
%nproc=8
%mem=16000MB
#p B2PLYPD3/Def2QZVP 

butadiene

0 1
C  -3.851332   0.231552   0.015619
C  -2.729223  -0.511383   0.034219
C  -1.378618   0.071440   0.034152
C  -0.248855  -0.652934   0.018365
H  -4.790428  -0.259654   0.065875
H  -3.817012   1.316682  -0.108774
H  -2.816975  -1.568214   0.119526
H  -1.344540   1.145509  -0.011538
H  -0.271210  -1.725241   0.009642
H   0.726095  -0.187434   0.050244
