%chk=/home/boittier/MDCM/nms_sampling/butadiene_geom.xyz.dir/butadiene_2431.chk
%nproc=8
%mem=16000MB
#p B2PLYPD3/Def2QZVP 

butadiene

0 1
C  -3.852900   0.239847   0.008739
C  -2.760203  -0.520190   0.052253
C  -1.394538   0.018862   0.014134
C  -0.220063  -0.626368   0.027725
H  -4.848680  -0.194622  -0.066533
H  -3.732533   1.374772  -0.065844
H  -2.812319  -1.617174   0.316479
H  -1.182415   1.189656   0.080333
H  -0.172089  -1.662290  -0.181288
H   0.702318  -0.063652   0.076796
