%chk=/home/boittier/MDCM/nms_sampling/butadiene_geom.xyz.dir/butadiene_1375.chk
%nproc=8
%mem=16000MB
#p B2PLYPD3/Def2QZVP 

butadiene

0 1
C  -3.867270   0.195754   0.060193
C  -2.716902  -0.458417  -0.016314
C  -1.368082   0.085786  -0.031027
C  -0.250949  -0.671620   0.054227
H  -4.819722  -0.264168   0.073550
H  -3.818624   1.257407   0.066374
H  -2.778754  -1.566221   0.087926
H  -1.300650   1.139444  -0.047666
H  -0.358635  -1.772846   0.181340
H   0.678051  -0.204543   0.173924
