%chk=/home/boittier/MDCM/nms_sampling/butadiene_geom.xyz.dir/butadiene_824.chk
%nproc=8
%mem=16000MB
#p B2PLYPD3/Def2QZVP 

butadiene

0 1
C  -3.842093   0.235466  -0.005212
C  -2.724002  -0.506956   0.055467
C  -1.386542   0.054150   0.037216
C  -0.250940  -0.647830   0.008182
H  -4.790507  -0.230482   0.049189
H  -3.852302   1.313284  -0.073024
H  -2.786898  -1.575205   0.126750
H  -1.355103   1.142867   0.089248
H  -0.284002  -1.724761   0.050564
H   0.700674  -0.165882  -0.026011
