%chk=/home/boittier/MDCM/nms_sampling/butadiene_geom.xyz.dir/butadiene_411.chk
%nproc=8
%mem=16000MB
#p B2PLYPD3/Def2QZVP 

butadiene

0 1
C  -3.850405   0.227824   0.026263
C  -2.725379  -0.508627   0.022695
C  -1.375619   0.062962   0.007919
C  -0.256671  -0.651633   0.039083
H  -4.851401  -0.213293   0.076982
H  -3.811149   1.320157   0.036237
H  -2.801146  -1.580388  -0.021160
H  -1.326519   1.157869  -0.087605
H  -0.239763  -1.726408   0.143682
H   0.710170  -0.146647   0.014081
