%chk=/home/boittier/MDCM/nms_sampling/butadiene_geom.xyz.dir/butadiene_2381.chk
%nproc=8
%mem=16000MB
#p B2PLYPD3/Def2QZVP 

butadiene

0 1
C  -3.882005   0.204080   0.052344
C  -2.713663  -0.451227  -0.001148
C  -1.356431   0.050983  -0.092120
C  -0.258762  -0.658130   0.101720
H  -4.835058  -0.303691   0.356815
H  -3.834028   1.299085   0.104825
H  -2.733323  -1.539871  -0.127271
H  -1.195347   1.083098  -0.072159
H  -0.318436  -1.821319   0.023579
H   0.608553  -0.075380   0.314161
