%chk=/home/boittier/MDCM/nms_sampling/butadiene_geom.xyz.dir/butadiene_2145.chk
%nproc=8
%mem=16000MB
#p B2PLYPD3/Def2QZVP 

butadiene

0 1
C  -3.839416   0.220625  -0.040781
C  -2.732758  -0.463919   0.079922
C  -1.396186   0.020116   0.108834
C  -0.238354  -0.647562  -0.060347
H  -4.871575  -0.256982   0.020101
H  -3.797362   1.290802  -0.216934
H  -2.856556  -1.545073   0.320192
H  -1.330937   1.169258   0.187972
H  -0.132012  -1.715773   0.043964
H   0.658555  -0.106014   0.006943

