%chk=/home/boittier/MDCM/nms_sampling/butadiene_geom.xyz.dir/butadiene_2481.chk
%nproc=8
%mem=16000MB
#p B2PLYPD3/Def2QZVP 

butadiene

0 1
C  -3.858144   0.244062   0.107867
C  -2.744152  -0.536198  -0.036463
C  -1.403313   0.034223  -0.055908
C  -0.218981  -0.627414   0.088160
H  -4.890902  -0.089480   0.001257
H  -3.690431   1.368423  -0.028447
H  -2.862981  -1.590596  -0.046694
H  -1.383778   1.128681  -0.200152
H  -0.023879  -1.731178   0.110811
H   0.748180  -0.099183   0.214483
