%chk=/home/boittier/MDCM/nms_sampling/butadiene_geom.xyz.dir/butadiene_742.chk
%nproc=8
%mem=16000MB
#p B2PLYPD3/Def2QZVP 

butadiene

0 1
C  -3.841963   0.225465   0.041305
C  -2.727203  -0.506334   0.017334
C  -1.384690   0.049658  -0.006299
C  -0.250770  -0.639307   0.050627
H  -4.846425  -0.165182   0.020715
H  -3.790808   1.318864   0.017155
H  -2.827261  -1.596830  -0.012379
H  -1.347267   1.152071  -0.082287
H  -0.266974  -1.726140   0.115400
H   0.719042  -0.163755   0.018553
