%chk=/home/boittier/MDCM/nms_sampling/butadiene_geom.xyz.dir/butadiene_33.chk
%nproc=8
%mem=16000MB
#p B2PLYPD3/Def2QZVP 

butadiene

0 1
C  -3.849892   0.225506   0.009070
C  -2.733234  -0.504310   0.052875
C  -1.380800   0.065527   0.030661
C  -0.248455  -0.651327   0.013161
H  -4.830865  -0.214609  -0.054015
H  -3.776440   1.320276  -0.051790
H  -2.777726  -1.581583   0.126876
H  -1.354562   1.142192   0.025027
H  -0.248062  -1.746411   0.040292
H   0.722737  -0.158810  -0.006220

