%chk=/home/boittier/MDCM/nms_sampling/butadiene_geom.xyz.dir/butadiene_1639.chk
%nproc=8
%mem=16000MB
#p B2PLYPD3/Def2QZVP 

butadiene

0 1
C  -3.835186   0.241357   0.028007
C  -2.712973  -0.526793   0.031014
C  -1.390750   0.053976   0.019227
C  -0.260626  -0.640520   0.030321
H  -4.820553  -0.194267   0.074269
H  -3.787521   1.360422  -0.155216
H  -2.768550  -1.602390   0.032404
H  -1.388999   1.152997   0.030383
H  -0.336198  -1.736640   0.054159
H   0.684238  -0.153459   0.004503

