%chk=/home/boittier/MDCM/nms_sampling/butadiene_geom.xyz.dir/butadiene_1075.chk
%nproc=8
%mem=16000MB
#p B2PLYPD3/Def2QZVP 

butadiene

0 1
C  -3.847541   0.226451  -0.002417
C  -2.720441  -0.506580   0.073774
C  -1.370667   0.082309   0.050763
C  -0.268762  -0.655435  -0.005680
H  -4.831686  -0.268630  -0.029008
H  -3.880484   1.289883  -0.194271
H  -2.758568  -1.571481   0.184663
H  -1.294552   1.171408   0.030008
H  -0.304295  -1.773442  -0.123824
H   0.739813  -0.216984   0.107577
