%chk=/home/boittier/MDCM/nms_sampling/butadiene_geom.xyz.dir/butadiene_2019.chk
%nproc=8
%mem=16000MB
#p B2PLYPD3/Def2QZVP 

butadiene

0 1
C  -3.865141   0.179762  -0.034642
C  -2.722541  -0.442734   0.123561
C  -1.353306   0.080974   0.063872
C  -0.248148  -0.672705  -0.037777
H  -4.850530  -0.283592  -0.102423
H  -3.988009   1.276096  -0.077078
H  -2.834362  -1.503181   0.012795
H  -1.247698   1.108007   0.006638
H  -0.413872  -1.694461   0.046202
H   0.770692  -0.239303   0.068066
