%chk=/home/boittier/MDCM/nms_sampling/butadiene_geom.xyz.dir/butadiene_1483.chk
%nproc=8
%mem=16000MB
#p B2PLYPD3/Def2QZVP 

butadiene

0 1
C  -3.855839   0.214880   0.034158
C  -2.714978  -0.482253   0.010122
C  -1.371992   0.074246  -0.002412
C  -0.249744  -0.656624   0.059924
H  -4.800639  -0.291830   0.115195
H  -3.828376   1.294378  -0.033517
H  -2.834404  -1.580858   0.103393
H  -1.360035   1.132435  -0.056986
H  -0.389884  -1.730334  -0.051906
H   0.698873  -0.236720   0.047336
