%chk=/home/boittier/MDCM/nms_sampling/butadiene_geom.xyz.dir/butadiene_987.chk
%nproc=8
%mem=16000MB
#p B2PLYPD3/Def2QZVP 

butadiene

0 1
C  -3.850933   0.219876   0.000228
C  -2.726788  -0.501389   0.048028
C  -1.381644   0.067651   0.053249
C  -0.259629  -0.652123   0.014483
H  -4.877648  -0.215679   0.083022
H  -3.804298   1.337212  -0.175530
H  -2.730780  -1.568492   0.156708
H  -1.302532   1.154831   0.017722
H  -0.230018  -1.709280  -0.094920
H   0.768919  -0.214852  -0.013850

