%chk=/home/boittier/MDCM/nms_sampling/butadiene_geom.xyz.dir/butadiene_2875.chk
%nproc=8
%mem=16000MB
#p B2PLYPD3/Def2QZVP 

butadiene

0 1
C  -3.819365   0.236402  -0.010729
C  -2.695862  -0.528149   0.071963
C  -1.409283   0.059971   0.030648
C  -0.268851  -0.642492   0.021256
H  -4.845261  -0.146170   0.061406
H  -3.821198   1.418167  -0.174144
H  -2.854019  -1.617219   0.143144
H  -1.425910   1.085452   0.178252
H  -0.247537  -1.710696  -0.103438
H   0.700139  -0.181883  -0.079909

