%chk=/home/boittier/MDCM/nms_sampling/butadiene_geom.xyz.dir/butadiene_1621.chk
%nproc=8
%mem=16000MB
#p B2PLYPD3/Def2QZVP 

butadiene

0 1
C  -3.847809   0.237333  -0.023548
C  -2.731156  -0.512551   0.077582
C  -1.387946   0.044236   0.037269
C  -0.230641  -0.635373   0.005874
H  -4.876016  -0.157125  -0.014140
H  -3.792297   1.290477   0.063267
H  -2.853909  -1.620026   0.093252
H  -1.397112   1.106570   0.041666
H  -0.254240  -1.720314   0.068618
H   0.725136  -0.139799  -0.073390

