%chk=/home/boittier/MDCM/nms_sampling/butadiene_geom.xyz.dir/butadiene_1835.chk
%nproc=8
%mem=16000MB
#p B2PLYPD3/Def2QZVP 

butadiene

0 1
C  -3.850892   0.236557  -0.031641
C  -2.726305  -0.518072   0.079348
C  -1.386350   0.050414   0.054832
C  -0.229136  -0.639430   0.000246
H  -4.865868  -0.160120   0.130182
H  -3.841898   1.340454  -0.082257
H  -2.848908  -1.630435   0.092196
H  -1.414751   1.134097   0.051243
H  -0.254853  -1.696794  -0.042735
H   0.724057  -0.179067  -0.019768

