%chk=/home/boittier/MDCM/nms_sampling/butadiene_geom.xyz.dir/butadiene_2212.chk
%nproc=8
%mem=16000MB
#p B2PLYPD3/Def2QZVP 

butadiene

0 1
C  -3.881840   0.199786   0.031433
C  -2.712331  -0.484378   0.005380
C  -1.362979   0.116764   0.020717
C  -0.254544  -0.680982   0.032206
H  -4.837885  -0.207952  -0.038102
H  -4.029111   1.278827   0.169445
H  -2.687532  -1.621512   0.012664
H  -1.175992   1.204349  -0.145092
H  -0.310815  -1.799164   0.304324
H   0.748570  -0.256860  -0.086692
