%chk=/home/boittier/MDCM/nms_sampling/butadiene_geom.xyz.dir/butadiene_1646.chk
%nproc=8
%mem=16000MB
#p B2PLYPD3/Def2QZVP 

butadiene

0 1
C  -3.844694   0.212736   0.014060
C  -2.706592  -0.475810   0.051607
C  -1.381799   0.086779   0.016000
C  -0.275429  -0.681485   0.031349
H  -4.795656  -0.250303  -0.079152
H  -3.841648   1.244819  -0.006751
H  -2.708534  -1.545130   0.133921
H  -1.358735   1.169393  -0.018442
H  -0.319410  -1.746566  -0.036335
H   0.694534  -0.175389  -0.006494
