%chk=/home/boittier/MDCM/nms_sampling/butadiene_geom.xyz.dir/butadiene_2618.chk
%nproc=8
%mem=16000MB
#p B2PLYPD3/Def2QZVP 

butadiene

0 1
C  -3.828795   0.258226  -0.024248
C  -2.750165  -0.523332   0.113085
C  -1.399447   0.020747   0.111618
C  -0.241062  -0.636233  -0.034660
H  -4.897598  -0.158165  -0.169535
H  -3.840276   1.301630  -0.306737
H  -2.744066  -1.637966  -0.014544
H  -1.230626   1.108685   0.057266
H  -0.055287  -1.624134   0.036686
H   0.612940  -0.060535  -0.272951
