%chk=/home/boittier/MDCM/nms_sampling/butadiene_geom.xyz.dir/butadiene_62.chk
%nproc=8
%mem=16000MB
#p B2PLYPD3/Def2QZVP 

butadiene

0 1
C  -3.840636   0.213765   0.012420
C  -2.709013  -0.489954   0.047923
C  -1.385182   0.084804   0.036329
C  -0.270405  -0.658746   0.018766
H  -4.825266  -0.255023  -0.013275
H  -3.808171   1.289712  -0.066017
H  -2.789706  -1.602830   0.022814
H  -1.331110   1.168652  -0.024155
H  -0.358891  -1.747274   0.089169
H   0.755024  -0.253588  -0.069403
