%chk=/home/boittier/MDCM/nms_sampling/butadiene_geom.xyz.dir/butadiene_1359.chk
%nproc=8
%mem=16000MB
#p B2PLYPD3/Def2QZVP 

butadiene

0 1
C  -3.849245   0.200700  -0.002080
C  -2.710168  -0.486272   0.059994
C  -1.382460   0.107288   0.001963
C  -0.273327  -0.678824   0.028703
H  -4.803487  -0.267014   0.067974
H  -3.818350   1.303453   0.000813
H  -2.786128  -1.518490   0.105240
H  -1.275102   1.189144   0.085964
H  -0.275231  -1.745009  -0.008021
H   0.721772  -0.260666   0.050441

