%chk=/home/boittier/MDCM/nms_sampling/butadiene_geom.xyz.dir/butadiene_2352.chk
%nproc=8
%mem=16000MB
#p B2PLYPD3/Def2QZVP 

butadiene

0 1
C  -3.876686   0.189867  -0.050631
C  -2.715953  -0.456649   0.091228
C  -1.381049   0.089161   0.095622
C  -0.254332  -0.666202  -0.011006
H  -4.890099  -0.279195  -0.071670
H  -3.875445   1.235681  -0.027856
H  -2.664485  -1.485280   0.195898
H  -1.132896   1.195831   0.106328
H  -0.320988  -1.830496   0.002034
H   0.802352  -0.276592  -0.349398

