%chk=/home/boittier/MDCM/nms_sampling/butadiene_geom.xyz.dir/butadiene_929.chk
%nproc=8
%mem=16000MB
#p B2PLYPD3/Def2QZVP 

butadiene

0 1
C  -3.848133   0.209269   0.006286
C  -2.722104  -0.481642   0.040150
C  -1.377029   0.084771   0.033587
C  -0.267005  -0.664711   0.023982
H  -4.795230  -0.266684  -0.000254
H  -3.787904   1.278770   0.017982
H  -2.780113  -1.578120   0.111485
H  -1.306789   1.159500  -0.034671
H  -0.312400  -1.738068   0.054469
H   0.734418  -0.222016  -0.059959
