%chk=/home/boittier/MDCM/nms_sampling/butadiene_geom.xyz.dir/butadiene_335.chk
%nproc=8
%mem=16000MB
#p B2PLYPD3/Def2QZVP 

butadiene

0 1
C  -3.845064   0.217070   0.000347
C  -2.709301  -0.494451   0.045378
C  -1.389381   0.084497   0.040289
C  -0.274906  -0.662762   0.018583
H  -4.817087  -0.238018   0.037735
H  -3.792167   1.291687  -0.074511
H  -2.707885  -1.581115   0.174405
H  -1.301971   1.181542   0.038839
H  -0.318174  -1.744805  -0.027460
H   0.747305  -0.238899  -0.040146

