%chk=/home/boittier/MDCM/nms_sampling/butadiene_geom.xyz.dir/butadiene_1052.chk
%nproc=8
%mem=16000MB
#p B2PLYPD3/Def2QZVP 

butadiene

0 1
C  -3.820594   0.234019   0.019625
C  -2.731111  -0.520921   0.025873
C  -1.396423   0.059221   0.031384
C  -0.260205  -0.637805   0.012079
H  -4.807516  -0.190023   0.084478
H  -3.692332   1.309567  -0.058695
H  -2.809403  -1.575729   0.099796
H  -1.422559   1.130396  -0.058177
H  -0.332591  -1.732950   0.085415
H   0.756487  -0.177247   0.125358
