%chk=/home/boittier/MDCM/nms_sampling/butadiene_geom.xyz.dir/butadiene_1128.chk
%nproc=8
%mem=16000MB
#p B2PLYPD3/Def2QZVP 

butadiene

0 1
C  -3.831865   0.232578   0.040283
C  -2.709788  -0.515615  -0.002211
C  -1.387557   0.056978  -0.000077
C  -0.263854  -0.637461   0.059438
H  -4.853035  -0.205352   0.100966
H  -3.736607   1.322240  -0.012095
H  -2.861495  -1.602938   0.086214
H  -1.391429   1.097049  -0.040898
H  -0.365220  -1.701858   0.054527
H   0.704903  -0.183799  -0.020185

