%chk=/home/boittier/MDCM/nms_sampling/butadiene_geom.xyz.dir/butadiene_2841.chk
%nproc=8
%mem=16000MB
#p B2PLYPD3/Def2QZVP 

butadiene

0 1
C  -3.818405   0.235485   0.031916
C  -2.710901  -0.519037   0.015892
C  -1.398735   0.069660   0.029048
C  -0.258936  -0.657360   0.018643
H  -4.798732  -0.195431   0.054706
H  -3.876150   1.315774   0.055197
H  -2.878228  -1.602869  -0.171026
H  -1.377008   1.199803  -0.155177
H  -0.267135  -1.726540   0.390704
H   0.619897  -0.164032  -0.049035

