%chk=/home/boittier/MDCM/nms_sampling/butadiene_geom.xyz.dir/butadiene_2659.chk
%nproc=8
%mem=16000MB
#p B2PLYPD3/Def2QZVP 

butadiene

0 1
C  -3.885133   0.172268   0.032976
C  -2.716242  -0.427134   0.019819
C  -1.360958   0.090745  -0.033612
C  -0.245028  -0.684287   0.073367
H  -4.912824  -0.302135   0.069965
H  -3.828426   1.256606   0.283247
H  -2.758758  -1.524625  -0.185475
H  -1.217246   1.140619  -0.244190
H  -0.364985  -1.811090   0.214138
H   0.724711  -0.155409   0.011018
