%chk=/home/boittier/MDCM/nms_sampling/butadiene_geom.xyz.dir/butadiene_1203.chk
%nproc=8
%mem=16000MB
#p B2PLYPD3/Def2QZVP 

butadiene

0 1
C  -3.847486   0.214397  -0.015671
C  -2.717064  -0.488914   0.054879
C  -1.382952   0.079257   0.064101
C  -0.261417  -0.657368  -0.002009
H  -4.829710  -0.234426   0.010821
H  -3.869604   1.253402   0.003530
H  -2.742739  -1.529135   0.142729
H  -1.304304   1.144683  -0.021209
H  -0.353524  -1.750601   0.072734
H   0.788498  -0.250650  -0.079220
