%chk=/home/boittier/MDCM/nms_sampling/butadiene_geom.xyz.dir/butadiene_2379.chk
%nproc=8
%mem=16000MB
#p B2PLYPD3/Def2QZVP 

butadiene

0 1
C  -3.790505   0.231637   0.081360
C  -2.740354  -0.541047  -0.029540
C  -1.409944   0.074390  -0.064559
C  -0.257583  -0.619866   0.071071
H  -4.876568  -0.173804   0.197098
H  -3.694469   1.384757   0.088296
H  -2.913650  -1.654619  -0.042923
H  -1.400177   1.111861  -0.210079
H  -0.296851  -1.744728   0.147696
H   0.767176  -0.286738   0.435417

