%chk=/home/boittier/MDCM/nms_sampling/butadiene_geom.xyz.dir/butadiene_360.chk
%nproc=8
%mem=16000MB
#p B2PLYPD3/Def2QZVP 

butadiene

0 1
C  -3.850979   0.221262   0.010705
C  -2.719951  -0.499968   0.051833
C  -1.373052   0.077950   0.018794
C  -0.259021  -0.656300   0.020070
H  -4.811336  -0.228465   0.005407
H  -3.869642   1.293497  -0.090005
H  -2.804639  -1.591684   0.114287
H  -1.324167   1.149400   0.080715
H  -0.296346  -1.729304   0.020201
H   0.720924  -0.221768   0.013332
