%chk=/home/boittier/MDCM/nms_sampling/butadiene_geom.xyz.dir/butadiene_198.chk
%nproc=8
%mem=16000MB
#p B2PLYPD3/Def2QZVP 

butadiene

0 1
C  -3.828963   0.231740   0.039305
C  -2.717863  -0.511660   0.008461
C  -1.388945   0.065947  -0.010207
C  -0.274050  -0.649685   0.060048
H  -4.810133  -0.212794   0.095504
H  -3.767005   1.310008   0.007303
H  -2.764729  -1.590882   0.047727
H  -1.308029   1.118325  -0.069893
H  -0.305572  -1.740449   0.032091
H   0.657540  -0.141689   0.046973

