%chk=/home/boittier/MDCM/nms_sampling/butadiene_geom.xyz.dir/butadiene_1951.chk
%nproc=8
%mem=16000MB
#p B2PLYPD3/Def2QZVP 

butadiene

0 1
C  -3.869637   0.189951   0.042024
C  -2.720784  -0.449749   0.014383
C  -1.350830   0.086311  -0.045666
C  -0.246610  -0.668259   0.055367
H  -4.784514  -0.263275   0.142359
H  -3.985082   1.220097   0.107098
H  -2.896011  -1.604454  -0.065963
H  -1.339659   1.148006  -0.046020
H  -0.413163  -1.731187   0.192499
H   0.827269  -0.265351   0.199597

