%chk=/home/boittier/MDCM/nms_sampling/butadiene_geom.xyz.dir/butadiene_113.chk
%nproc=8
%mem=16000MB
#p B2PLYPD3/Def2QZVP 

butadiene

0 1
C  -3.854582   0.214655   0.006565
C  -2.719590  -0.483318   0.043697
C  -1.373663   0.076834   0.036823
C  -0.261853  -0.665372   0.012306
H  -4.832758  -0.263044   0.045520
H  -3.834138   1.276131  -0.056604
H  -2.724717  -1.556883   0.104696
H  -1.299286   1.169925  -0.017979
H  -0.314723  -1.742657   0.043757
H   0.701150  -0.197755   0.035280

