%chk=/home/boittier/MDCM/nms_sampling/butadiene_geom.xyz.dir/butadiene_57.chk
%nproc=8
%mem=16000MB
#p B2PLYPD3/Def2QZVP 

butadiene

0 1
C  -3.842106   0.211758   0.031307
C  -2.711461  -0.497485   0.020038
C  -1.379111   0.091904   0.012491
C  -0.279283  -0.660723   0.035237
H  -4.822016  -0.229480   0.025646
H  -3.817198   1.286059   0.035705
H  -2.758166  -1.563280  -0.002072
H  -1.264303   1.161282  -0.108639
H  -0.331564  -1.758426   0.155534
H   0.715677  -0.241976   0.015185
