%chk=/home/boittier/MDCM/nms_sampling/butadiene_geom.xyz.dir/butadiene_2615.chk
%nproc=8
%mem=16000MB
#p B2PLYPD3/Def2QZVP 

butadiene

0 1
C  -3.829927   0.183844  -0.058381
C  -2.707280  -0.450433   0.081409
C  -1.390066   0.102874   0.087304
C  -0.288662  -0.662658  -0.038156
H  -4.721147  -0.335370   0.105417
H  -3.818235   1.301541  -0.092264
H  -2.722059  -1.585525   0.418015
H  -1.289881   1.179078   0.205987
H  -0.486347  -1.796439  -0.096810
H   0.817265  -0.407766   0.032446
