%chk=/home/boittier/MDCM/nms_sampling/butadiene_geom.xyz.dir/butadiene_1995.chk
%nproc=8
%mem=16000MB
#p B2PLYPD3/Def2QZVP 

butadiene

0 1
C  -3.867662   0.198187   0.056160
C  -2.710548  -0.467824   0.010635
C  -1.365823   0.091256  -0.049061
C  -0.255138  -0.668112   0.049656
H  -4.750291  -0.293895   0.167218
H  -3.979666   1.283583  -0.017468
H  -2.764085  -1.595434  -0.043555
H  -1.206477   1.187296  -0.052253
H  -0.495906  -1.765737   0.115866
H   0.758744  -0.250244   0.358892
