%chk=/home/boittier/MDCM/nms_sampling/butadiene_geom.xyz.dir/butadiene_1044.chk
%nproc=8
%mem=16000MB
#p B2PLYPD3/Def2QZVP 

butadiene

0 1
C  -3.833638   0.236597  -0.005668
C  -2.732897  -0.517279   0.048743
C  -1.395657   0.055077   0.067330
C  -0.246006  -0.630844  -0.008546
H  -4.813010  -0.212049   0.064686
H  -3.752600   1.300198  -0.105177
H  -2.902740  -1.608769   0.135844
H  -1.332926   1.097781  -0.037359
H  -0.244874  -1.729106   0.036297
H   0.737677  -0.193420   0.035564
