%chk=/home/boittier/MDCM/nms_sampling/butadiene_geom.xyz.dir/butadiene_1665.chk
%nproc=8
%mem=16000MB
#p B2PLYPD3/Def2QZVP 

butadiene

0 1
C  -3.854462   0.239262   0.006024
C  -2.718591  -0.503733   0.066653
C  -1.383900   0.040113   0.005659
C  -0.247420  -0.650070   0.033253
H  -4.798186  -0.214738   0.040562
H  -3.825579   1.338825  -0.093039
H  -2.784694  -1.599259   0.048026
H  -1.347004   1.116530   0.055226
H  -0.231713  -1.684565  -0.071730
H   0.626177  -0.099255   0.033914
