%chk=/home/boittier/MDCM/nms_sampling/butadiene_geom.xyz.dir/butadiene_549.chk
%nproc=8
%mem=16000MB
#p B2PLYPD3/Def2QZVP 

butadiene

0 1
C  -3.850156   0.234635   0.000188
C  -2.725600  -0.510460   0.055128
C  -1.374764   0.062797   0.024875
C  -0.254964  -0.649759   0.010268
H  -4.824297  -0.238263   0.020262
H  -3.845636   1.299061  -0.035821
H  -2.774151  -1.584642   0.157678
H  -1.325555   1.147049   0.053582
H  -0.290768  -1.731208   0.015193
H   0.710698  -0.160626   0.070634

