%chk=/home/boittier/MDCM/nms_sampling/butadiene_geom.xyz.dir/butadiene_2632.chk
%nproc=8
%mem=16000MB
#p B2PLYPD3/Def2QZVP 

butadiene

0 1
C  -3.810599   0.277743   0.078363
C  -2.702165  -0.544403  -0.035209
C  -1.432556   0.029287  -0.040895
C  -0.273586  -0.620322   0.077712
H  -4.832170  -0.178387   0.269224
H  -3.726758   1.298662  -0.125203
H  -2.755657  -1.627343  -0.066687
H  -1.414342   1.016492  -0.004665
H  -0.177153  -1.686924   0.164837
H   0.740253  -0.174956   0.136881
