%chk=/home/boittier/MDCM/nms_sampling/butadiene_geom.xyz.dir/butadiene_1402.chk
%nproc=8
%mem=16000MB
#p B2PLYPD3/Def2QZVP 

butadiene

0 1
C  -3.834678   0.245784   0.004490
C  -2.737959  -0.525178   0.043925
C  -1.391965   0.050344   0.019297
C  -0.245492  -0.635691   0.029470
H  -4.807121  -0.254739   0.092473
H  -3.773008   1.310110   0.008876
H  -2.819152  -1.603589   0.104514
H  -1.279394   1.163311  -0.074104
H  -0.285513  -1.693822  -0.048656
H   0.690937  -0.166880   0.096194
