%chk=/home/boittier/MDCM/nms_sampling/butadiene_geom.xyz.dir/butadiene_1735.chk
%nproc=8
%mem=16000MB
#p B2PLYPD3/Def2QZVP 

butadiene

0 1
C  -3.830079   0.222753   0.001073
C  -2.717264  -0.510477   0.054744
C  -1.392376   0.049753   0.053471
C  -0.271054  -0.640009   0.000349
H  -4.864660  -0.111592  -0.003937
H  -3.761346   1.294072  -0.069371
H  -2.755442  -1.578028   0.036838
H  -1.278755   1.159564  -0.019253
H  -0.324434  -1.701899   0.125634
H   0.700071  -0.154199  -0.056925
