%chk=/home/boittier/MDCM/nms_sampling/butadiene_geom.xyz.dir/butadiene_400.chk
%nproc=8
%mem=16000MB
#p B2PLYPD3/Def2QZVP 

butadiene

0 1
C  -3.840762   0.228386  -0.008784
C  -2.722280  -0.497574   0.056245
C  -1.387597   0.051337   0.045157
C  -0.261915  -0.647398   0.010583
H  -4.827155  -0.234254   0.061338
H  -3.816040   1.320229  -0.041669
H  -2.775384  -1.593307   0.114505
H  -1.297703   1.148155  -0.014189
H  -0.251493  -1.706014  -0.005475
H   0.711384  -0.168978  -0.002827
