%chk=/home/boittier/MDCM/nms_sampling/butadiene_geom.xyz.dir/butadiene_1078.chk
%nproc=8
%mem=16000MB
#p B2PLYPD3/Def2QZVP 

butadiene

0 1
C  -3.840532   0.234143   0.031784
C  -2.730830  -0.498298   0.016047
C  -1.392106   0.034484   0.000366
C  -0.250393  -0.646578   0.033238
H  -4.822047  -0.204401   0.048055
H  -3.722715   1.322659   0.041743
H  -2.806992  -1.600289   0.007361
H  -1.366705   1.144576   0.006876
H  -0.197947  -1.718555   0.247301
H   0.670515  -0.056787  -0.001382
