%chk=/home/boittier/MDCM/nms_sampling/butadiene_geom.xyz.dir/butadiene_1111.chk
%nproc=8
%mem=16000MB
#p B2PLYPD3/Def2QZVP 

butadiene

0 1
C  -3.819109   0.239464   0.047504
C  -2.713838  -0.516970   0.024570
C  -1.400054   0.032008  -0.020893
C  -0.265800  -0.626907   0.057679
H  -4.797120  -0.159731  -0.000394
H  -3.805720   1.314265   0.013039
H  -2.822775  -1.590978  -0.078079
H  -1.348039   1.130568  -0.091036
H  -0.346126  -1.688933   0.112017
H   0.698179  -0.176294   0.039294

