%chk=/home/boittier/MDCM/nms_sampling/butadiene_geom.xyz.dir/butadiene_2314.chk
%nproc=8
%mem=16000MB
#p B2PLYPD3/Def2QZVP 

butadiene

0 1
C  -3.826457   0.211361   0.045592
C  -2.717268  -0.501085   0.018222
C  -1.385228   0.127885  -0.067183
C  -0.272144  -0.672489   0.096398
H  -4.727526  -0.318909  -0.025276
H  -3.784932   1.270414   0.295531
H  -2.802153  -1.594905  -0.143897
H  -1.304852   1.145597  -0.087344
H  -0.484211  -1.783801   0.222228
H   0.694597  -0.289454  -0.101156

