%chk=/home/boittier/MDCM/nms_sampling/butadiene_geom.xyz.dir/butadiene_764.chk
%nproc=8
%mem=16000MB
#p B2PLYPD3/Def2QZVP 

butadiene

0 1
C  -3.847609   0.222942   0.026450
C  -2.736609  -0.505783   0.013621
C  -1.378230   0.062676   0.014052
C  -0.251867  -0.647980   0.030308
H  -4.828983  -0.215925   0.085930
H  -3.752002   1.339352  -0.020761
H  -2.815526  -1.599968   0.128376
H  -1.305189   1.149808  -0.009815
H  -0.231484  -1.711174   0.088338
H   0.696940  -0.160590   0.067785
