%chk=/home/boittier/MDCM/nms_sampling/butadiene_geom.xyz.dir/butadiene_1556.chk
%nproc=8
%mem=16000MB
#p B2PLYPD3/Def2QZVP 

butadiene

0 1
C  -3.865482   0.206686  -0.021171
C  -2.717886  -0.477210   0.067281
C  -1.368167   0.088263   0.044550
C  -0.256717  -0.662328   0.008597
H  -4.745722  -0.325046   0.093321
H  -3.831026   1.285009  -0.133862
H  -2.806320  -1.527546   0.214883
H  -1.319683   1.146683   0.165465
H  -0.392220  -1.771604  -0.090286
H   0.772310  -0.263031  -0.045306

