%chk=/home/boittier/MDCM/nms_sampling/butadiene_geom.xyz.dir/butadiene_2102.chk
%nproc=8
%mem=16000MB
#p B2PLYPD3/Def2QZVP 

butadiene

0 1
C  -3.867351   0.192461  -0.018882
C  -2.719903  -0.458229   0.064132
C  -1.363253   0.072807   0.081192
C  -0.231459  -0.660911  -0.028607
H  -4.804311  -0.272624   0.065910
H  -3.854588   1.324600  -0.210064
H  -2.861469  -1.584516   0.260697
H  -1.405541   1.168059   0.069870
H  -0.459242  -1.788197  -0.062438
H   0.729398  -0.207266   0.096682

