%chk=/home/boittier/MDCM/nms_sampling/butadiene_geom.xyz.dir/butadiene_946.chk
%nproc=8
%mem=16000MB
#p B2PLYPD3/Def2QZVP 

butadiene

0 1
C  -3.836977   0.237417   0.040733
C  -2.719590  -0.505931   0.014534
C  -1.392908   0.060489  -0.014036
C  -0.259597  -0.650363   0.055790
H  -4.802004  -0.273981  -0.024366
H  -3.800584   1.311465   0.090778
H  -2.774681  -1.576810   0.052923
H  -1.347456   1.124790  -0.080353
H  -0.278415  -1.711376   0.101318
H   0.706485  -0.188459   0.014823
