%chk=/home/boittier/MDCM/nms_sampling/butadiene_geom.xyz.dir/butadiene_2600.chk
%nproc=8
%mem=16000MB
#p B2PLYPD3/Def2QZVP 

butadiene

0 1
C  -3.816912   0.226882   0.037633
C  -2.731769  -0.521545   0.031246
C  -1.391737   0.111671  -0.048777
C  -0.261096  -0.663393   0.077408
H  -4.830832  -0.286617   0.052515
H  -3.771850   1.335621   0.000778
H  -2.809753  -1.623735   0.025013
H  -1.458335   1.176617   0.104264
H  -0.315905  -1.752732  -0.000567
H   0.796978  -0.288519  -0.002969
