%chk=/home/boittier/MDCM/nms_sampling/butadiene_geom.xyz.dir/butadiene_195.chk
%nproc=8
%mem=16000MB
#p B2PLYPD3/Def2QZVP 

butadiene

0 1
C  -3.842825   0.231340   0.041053
C  -2.719577  -0.516397   0.013031
C  -1.385533   0.056273  -0.014923
C  -0.263420  -0.641967   0.046268
H  -4.834896  -0.176352   0.092495
H  -3.776525   1.324265   0.005960
H  -2.809004  -1.612350   0.030491
H  -1.276632   1.146223  -0.061297
H  -0.261687  -1.721480   0.090592
H   0.681429  -0.140483   0.150284

