%chk=/home/boittier/MDCM/nms_sampling/butadiene_geom.xyz.dir/butadiene_683.chk
%nproc=8
%mem=16000MB
#p B2PLYPD3/Def2QZVP 

butadiene

0 1
C  -3.840556   0.214481   0.028315
C  -2.715735  -0.497458   0.017525
C  -1.380806   0.091180  -0.003210
C  -0.275659  -0.663102   0.049763
H  -4.824294  -0.231806   0.096475
H  -3.791825   1.289937   0.061641
H  -2.773750  -1.580463  -0.012836
H  -1.311957   1.151025  -0.072181
H  -0.294472  -1.747447   0.131101
H   0.728351  -0.223821   0.004527

