%chk=/home/boittier/MDCM/nms_sampling/butadiene_geom.xyz.dir/butadiene_1179.chk
%nproc=8
%mem=16000MB
#p B2PLYPD3/Def2QZVP 

butadiene

0 1
C  -3.854589   0.212883   0.046129
C  -2.709498  -0.476740   0.007892
C  -1.382425   0.079042  -0.042591
C  -0.259716  -0.677517   0.057756
H  -4.839891  -0.265365   0.133958
H  -3.883026   1.313529   0.016952
H  -2.707100  -1.560815   0.029589
H  -1.315285   1.150055   0.051767
H  -0.308456  -1.750419   0.131049
H   0.703088  -0.141368   0.157896
