%chk=/home/boittier/MDCM/nms_sampling/butadiene_geom.xyz.dir/butadiene_865.chk
%nproc=8
%mem=16000MB
#p B2PLYPD3/Def2QZVP 

butadiene

0 1
C  -3.849638   0.221906   0.015543
C  -2.718798  -0.489871   0.041016
C  -1.379545   0.077639   0.016624
C  -0.258964  -0.660270   0.038210
H  -4.782022  -0.294484   0.031002
H  -3.877450   1.285473   0.003996
H  -2.800104  -1.561882  -0.008719
H  -1.320887   1.169939  -0.056207
H  -0.270156  -1.736815   0.071697
H   0.720008  -0.254707  -0.061936

