%chk=/home/boittier/MDCM/nms_sampling/butadiene_geom.xyz.dir/butadiene_2701.chk
%nproc=8
%mem=16000MB
#p B2PLYPD3/Def2QZVP 

butadiene

0 1
C  -3.869631   0.203223  -0.002339
C  -2.728956  -0.464464   0.064522
C  -1.357668   0.073100   0.077195
C  -0.238869  -0.656480  -0.007792
H  -4.750214  -0.256781  -0.082753
H  -3.916980   1.252214  -0.249536
H  -2.766255  -1.584539   0.157492
H  -1.342009   1.132560   0.133542
H  -0.464363  -1.752873   0.021060
H   0.751022  -0.256002  -0.195629

