%chk=/home/boittier/MDCM/nms_sampling/butadiene_geom.xyz.dir/butadiene_1536.chk
%nproc=8
%mem=16000MB
#p B2PLYPD3/Def2QZVP 

butadiene

0 1
C  -3.817875   0.228740   0.043091
C  -2.721111  -0.505866  -0.004190
C  -1.405977   0.061209  -0.023409
C  -0.265686  -0.645596   0.047560
H  -4.770738  -0.212363   0.169499
H  -3.700935   1.299042   0.003974
H  -2.836514  -1.597246   0.067514
H  -1.359032   1.155169   0.051349
H  -0.289527  -1.737885   0.177044
H   0.674925  -0.181424   0.131232
