%chk=/home/boittier/MDCM/nms_sampling/butadiene_geom.xyz.dir/butadiene_380.chk
%nproc=8
%mem=16000MB
#p B2PLYPD3/Def2QZVP 

butadiene

0 1
C  -3.854436   0.221194   0.036087
C  -2.714277  -0.495397   0.010425
C  -1.374323   0.082977  -0.007222
C  -0.258432  -0.661932   0.046925
H  -4.819399  -0.261895   0.137423
H  -3.877873   1.270074  -0.006400
H  -2.820797  -1.570559  -0.002099
H  -1.328020   1.159496  -0.034987
H  -0.296615  -1.747661   0.131915
H   0.734480  -0.219503   0.070255
