%chk=/home/boittier/MDCM/nms_sampling/butadiene_geom.xyz.dir/butadiene_666.chk
%nproc=8
%mem=16000MB
#p B2PLYPD3/Def2QZVP 

butadiene

0 1
C  -3.835364   0.226956   0.013498
C  -2.713458  -0.506358   0.044584
C  -1.388564   0.076056   0.027845
C  -0.269974  -0.661723   0.022600
H  -4.800384  -0.230170   0.047683
H  -3.780191   1.324076  -0.125347
H  -2.772419  -1.590168   0.081270
H  -1.351110   1.145009   0.038298
H  -0.295633  -1.716104   0.012318
H   0.671792  -0.167390  -0.005213

