%chk=/home/boittier/MDCM/nms_sampling/butadiene_geom.xyz.dir/butadiene_2803.chk
%nproc=8
%mem=16000MB
#p B2PLYPD3/Def2QZVP 

butadiene

0 1
C  -3.859051   0.180550   0.078297
C  -2.707600  -0.415193  -0.059818
C  -1.369373   0.068956  -0.025721
C  -0.271483  -0.674967   0.063419
H  -4.701225  -0.402781   0.349667
H  -3.939449   1.277158  -0.037166
H  -2.872102  -1.507479   0.013869
H  -1.298984   1.230244  -0.168252
H  -0.272396  -1.761839   0.173423
H   0.750086  -0.314929   0.329078
