%chk=/home/boittier/MDCM/nms_sampling/butadiene_geom.xyz.dir/butadiene_257.chk
%nproc=8
%mem=16000MB
#p B2PLYPD3/Def2QZVP 

butadiene

0 1
C  -3.842731   0.231884   0.038229
C  -2.725082  -0.514661   0.008763
C  -1.383492   0.061099  -0.019355
C  -0.249574  -0.640984   0.058920
H  -4.831003  -0.206460   0.070966
H  -3.799847   1.311980   0.061873
H  -2.865065  -1.615669   0.084677
H  -1.334883   1.139399  -0.046584
H  -0.279239  -1.713590   0.054561
H   0.706458  -0.190386   0.074686
