%chk=/home/boittier/MDCM/nms_sampling/butadiene_geom.xyz.dir/butadiene_1929.chk
%nproc=8
%mem=16000MB
#p B2PLYPD3/Def2QZVP 

butadiene

0 1
C  -3.813880   0.256991  -0.006418
C  -2.721582  -0.533852   0.067037
C  -1.414036   0.029251   0.111739
C  -0.257661  -0.627432  -0.012721
H  -4.753142  -0.206983  -0.162281
H  -3.594811   1.359536  -0.163377
H  -2.870070  -1.638435   0.099388
H  -1.479355   1.115226  -0.139986
H  -0.292216  -1.637637  -0.012248
H   0.682232  -0.135815  -0.229493

