%chk=/home/boittier/MDCM/nms_sampling/butadiene_geom.xyz.dir/butadiene_1496.chk
%nproc=8
%mem=16000MB
#p B2PLYPD3/Def2QZVP 

butadiene

0 1
C  -3.841300   0.220028  -0.013326
C  -2.713061  -0.487459   0.086301
C  -1.382677   0.085533   0.036433
C  -0.275423  -0.664435   0.010646
H  -4.731722  -0.356366   0.006283
H  -3.838190   1.286522  -0.126313
H  -2.760991  -1.557715   0.080247
H  -1.250946   1.204564   0.055816
H  -0.359253  -1.751636  -0.097369
H   0.682053  -0.258108  -0.003576
