%chk=/home/boittier/MDCM/nms_sampling/butadiene_geom.xyz.dir/butadiene_1576.chk
%nproc=8
%mem=16000MB
#p B2PLYPD3/Def2QZVP 

butadiene

0 1
C  -3.862595   0.207612   0.044139
C  -2.718466  -0.486025   0.001409
C  -1.370658   0.090724  -0.013603
C  -0.269966  -0.666358   0.072802
H  -4.769474  -0.295260   0.126655
H  -3.823116   1.302915   0.062833
H  -2.735372  -1.567724  -0.108132
H  -1.211956   1.217674  -0.137036
H  -0.340635  -1.768320   0.145132
H   0.726538  -0.229129  -0.055933
