%chk=/home/boittier/MDCM/nms_sampling/butadiene_geom.xyz.dir/butadiene_1183.chk
%nproc=8
%mem=16000MB
#p B2PLYPD3/Def2QZVP 

butadiene

0 1
C  -3.849576   0.243638  -0.007066
C  -2.745420  -0.513822   0.076574
C  -1.388452   0.034033   0.048877
C  -0.226482  -0.625190  -0.010352
H  -4.838713  -0.263575  -0.151751
H  -3.749426   1.343032  -0.015287
H  -2.811171  -1.625814   0.120085
H  -1.322824   1.121254   0.037865
H  -0.290378  -1.703958   0.109464
H   0.739359  -0.161240  -0.054935
