%chk=/home/boittier/MDCM/nms_sampling/butadiene_geom.xyz.dir/butadiene_2239.chk
%nproc=8
%mem=16000MB
#p B2PLYPD3/Def2QZVP 

butadiene

0 1
C  -3.849470   0.177117  -0.027548
C  -2.689586  -0.488269   0.076895
C  -1.360667   0.155207   0.084171
C  -0.294928  -0.693701  -0.040866
H  -4.820431  -0.252988  -0.081881
H  -3.770242   1.324922  -0.044397
H  -2.801679  -1.554897   0.117158
H  -1.298202   1.164387   0.131195
H  -0.509171  -1.773746   0.277107
H   0.687617  -0.298235  -0.158568

