%chk=/home/boittier/MDCM/nms_sampling/butadiene_geom.xyz.dir/butadiene_2579.chk
%nproc=8
%mem=16000MB
#p B2PLYPD3/Def2QZVP 

butadiene

0 1
C  -3.871500   0.202227  -0.017431
C  -2.736019  -0.492199   0.102278
C  -1.368501   0.093588   0.052885
C  -0.246768  -0.666162  -0.011261
H  -4.846448  -0.251831  -0.047563
H  -3.935802   1.340955  -0.224806
H  -2.675920  -1.505368   0.155774
H  -1.202840   1.212794   0.065845
H  -0.277176  -1.752906  -0.187827
H   0.810503  -0.275421   0.095493
