%chk=/home/boittier/MDCM/nms_sampling/butadiene_geom.xyz.dir/butadiene_342.chk
%nproc=8
%mem=16000MB
#p B2PLYPD3/Def2QZVP 

butadiene

0 1
C  -3.831685   0.214762  -0.002260
C  -2.710786  -0.488306   0.056856
C  -1.390215   0.089255   0.036517
C  -0.273667  -0.668536   0.006499
H  -4.775961  -0.288399   0.043255
H  -3.841059   1.318104  -0.073451
H  -2.781687  -1.572050   0.133298
H  -1.331988   1.160528   0.024812
H  -0.325399  -1.752397  -0.000318
H   0.715523  -0.228045   0.062096
