%chk=/home/boittier/MDCM/nms_sampling/butadiene_geom.xyz.dir/butadiene_594.chk
%nproc=8
%mem=16000MB
#p B2PLYPD3/Def2QZVP 

butadiene

0 1
C  -3.837032   0.217872   0.004616
C  -2.714884  -0.497576   0.053205
C  -1.382338   0.078422   0.031877
C  -0.270591  -0.661235   0.013155
H  -4.838299  -0.235981  -0.012192
H  -3.767658   1.286508  -0.042508
H  -2.780058  -1.575706   0.074681
H  -1.309843   1.176599   0.043020
H  -0.340941  -1.735851   0.097436
H   0.672734  -0.175202  -0.051544

