%chk=/home/boittier/MDCM/nms_sampling/butadiene_geom.xyz.dir/butadiene_577.chk
%nproc=8
%mem=16000MB
#p B2PLYPD3/Def2QZVP 

butadiene

0 1
C  -3.844843   0.225260   0.040018
C  -2.717544  -0.499602   0.003409
C  -1.375910   0.070276  -0.002628
C  -0.265662  -0.655698   0.057302
H  -4.836557  -0.260107   0.111078
H  -3.869906   1.300438  -0.000274
H  -2.793748  -1.579011   0.045610
H  -1.295918   1.166777  -0.096623
H  -0.283379  -1.735616   0.042323
H   0.708937  -0.189359   0.048187

