%chk=/home/boittier/MDCM/nms_sampling/butadiene_geom.xyz.dir/butadiene_2410.chk
%nproc=8
%mem=16000MB
#p B2PLYPD3/Def2QZVP 

butadiene

0 1
C  -3.867600   0.185704  -0.062485
C  -2.702467  -0.438181   0.129726
C  -1.370560   0.103864   0.047434
C  -0.281419  -0.686697  -0.015195
H  -4.837567  -0.282170  -0.067064
H  -3.900310   1.258871   0.067320
H  -2.669646  -1.545702   0.108217
H  -1.314375   1.143673   0.184928
H  -0.201458  -1.819509   0.031396
H   0.750886  -0.299347  -0.153167

