%chk=/home/boittier/MDCM/nms_sampling/butadiene_geom.xyz.dir/butadiene_561.chk
%nproc=8
%mem=16000MB
#p B2PLYPD3/Def2QZVP 

butadiene

0 1
C  -3.837279   0.215839   0.032086
C  -2.709262  -0.497389   0.018062
C  -1.381524   0.084355  -0.014010
C  -0.273645  -0.658101   0.049227
H  -4.808657  -0.252021   0.066050
H  -3.811829   1.305511   0.056825
H  -2.821000  -1.597582   0.071072
H  -1.326433   1.167470  -0.041866
H  -0.361194  -1.730363   0.070291
H   0.728727  -0.238054   0.091652
