%chk=/home/boittier/MDCM/nms_sampling/butadiene_geom.xyz.dir/butadiene_1624.chk
%nproc=8
%mem=16000MB
#p B2PLYPD3/Def2QZVP 

butadiene

0 1
C  -3.844735   0.203549  -0.026604
C  -2.727087  -0.462520   0.083207
C  -1.381771   0.068820   0.053895
C  -0.256080  -0.661357  -0.012107
H  -4.833517  -0.298480  -0.084521
H  -3.850600   1.282739   0.032148
H  -2.807139  -1.541863   0.200535
H  -1.269013   1.134962   0.030499
H  -0.274239  -1.721573   0.010558
H   0.737215  -0.227504  -0.008495

