%chk=/home/boittier/MDCM/nms_sampling/butadiene_geom.xyz.dir/butadiene_1884.chk
%nproc=8
%mem=16000MB
#p B2PLYPD3/Def2QZVP 

butadiene

0 1
C  -3.838479   0.253058   0.056799
C  -2.730417  -0.518147  -0.012698
C  -1.386713   0.039376   0.004135
C  -0.249433  -0.637053   0.050653
H  -4.782655  -0.277899   0.089665
H  -3.840368   1.338316  -0.049877
H  -2.792048  -1.609186   0.029604
H  -1.376750   1.153127  -0.124303
H  -0.228578  -1.718707   0.116911
H   0.681236  -0.162424   0.070564

