%chk=/home/boittier/MDCM/nms_sampling/butadiene_geom.xyz.dir/butadiene_165.chk
%nproc=8
%mem=16000MB
#p B2PLYPD3/Def2QZVP 

butadiene

0 1
C  -3.837922   0.218246   0.002229
C  -2.710950  -0.492326   0.053235
C  -1.385861   0.092131   0.032008
C  -0.274956  -0.671366   0.024411
H  -4.796889  -0.295364   0.029894
H  -3.797505   1.292077  -0.014432
H  -2.760228  -1.576271   0.011414
H  -1.333326   1.195550  -0.033929
H  -0.319428  -1.752048   0.063709
H   0.705249  -0.219493  -0.075690
