%chk=/home/boittier/MDCM/nms_sampling/butadiene_geom.xyz.dir/butadiene_1789.chk
%nproc=8
%mem=16000MB
#p B2PLYPD3/Def2QZVP 

butadiene

0 1
C  -3.841688   0.238867  -0.011980
C  -2.740851  -0.509917   0.061743
C  -1.386585   0.062452   0.031867
C  -0.250017  -0.650766   0.003070
H  -4.779971  -0.249822   0.015733
H  -3.801895   1.308645   0.006079
H  -2.752044  -1.626537   0.206372
H  -1.293921   1.149891   0.057268
H  -0.216227  -1.747376  -0.000179
H   0.669469  -0.133843   0.073699
