%chk=/home/boittier/MDCM/nms_sampling/butadiene_geom.xyz.dir/butadiene_2287.chk
%nproc=8
%mem=16000MB
#p B2PLYPD3/Def2QZVP 

butadiene

0 1
C  -3.827908   0.189956   0.071621
C  -2.708684  -0.471479  -0.022817
C  -1.389305   0.126379  -0.078987
C  -0.271589  -0.675591   0.112218
H  -4.791770  -0.353340   0.168256
H  -3.828236   1.222607   0.030877
H  -2.909890  -1.570837   0.060444
H  -1.290652   1.256293   0.031461
H  -0.446947  -1.720074  -0.018473
H   0.819744  -0.428382   0.095278
