%chk=/home/boittier/MDCM/nms_sampling/butadiene_geom.xyz.dir/butadiene_2845.chk
%nproc=8
%mem=16000MB
#p B2PLYPD3/Def2QZVP 

butadiene

0 1
C  -3.787929   0.245574   0.093965
C  -2.709748  -0.538268  -0.033329
C  -1.416957   0.042841  -0.097563
C  -0.272331  -0.632363   0.103862
H  -4.788857  -0.145968   0.100548
H  -3.783479   1.405099   0.029079
H  -2.976520  -1.653520   0.034844
H  -1.382878   1.097142   0.068520
H  -0.273689  -1.697575   0.130316
H   0.636612  -0.074966   0.183880
