%chk=/home/boittier/MDCM/nms_sampling/butadiene_geom.xyz.dir/butadiene_604.chk
%nproc=8
%mem=16000MB
#p B2PLYPD3/Def2QZVP 

butadiene

0 1
C  -3.825579   0.234271   0.030395
C  -2.720013  -0.506667   0.024725
C  -1.390517   0.053026  -0.005168
C  -0.268375  -0.641314   0.037470
H  -4.805692  -0.230548   0.093540
H  -3.778728   1.310568  -0.028191
H  -2.790661  -1.615175   0.025701
H  -1.354094   1.130906   0.001736
H  -0.337999  -1.729177   0.105633
H   0.708502  -0.162785   0.092923
