%chk=/home/boittier/MDCM/nms_sampling/butadiene_geom.xyz.dir/butadiene_2836.chk
%nproc=8
%mem=16000MB
#p B2PLYPD3/Def2QZVP 

butadiene

0 1
C  -3.835430   0.188831  -0.081532
C  -2.703922  -0.487882   0.156743
C  -1.383323   0.116147   0.079676
C  -0.275799  -0.681300  -0.032532
H  -4.939532  -0.098849  -0.078071
H  -3.786177   1.315039   0.044610
H  -2.702761  -1.626914   0.022590
H  -1.409642   1.197768   0.063441
H  -0.324286  -1.731091  -0.018199
H   0.706715  -0.285009  -0.166588

