%chk=/home/boittier/MDCM/nms_sampling/butadiene_geom.xyz.dir/butadiene_431.chk
%nproc=8
%mem=16000MB
#p B2PLYPD3/Def2QZVP 

butadiene

0 1
C  -3.847532   0.214156   0.001377
C  -2.722937  -0.478615   0.051014
C  -1.384841   0.072401   0.047794
C  -0.255807  -0.665094   0.009390
H  -4.791532  -0.290121  -0.000485
H  -3.813251   1.310010  -0.040759
H  -2.779772  -1.573986   0.084241
H  -1.303583   1.156815  -0.043076
H  -0.292394  -1.730815   0.054984
H   0.700499  -0.183750  -0.035435
