%chk=/home/boittier/MDCM/nms_sampling/butadiene_geom.xyz.dir/butadiene_692.chk
%nproc=8
%mem=16000MB
#p B2PLYPD3/Def2QZVP 

butadiene

0 1
C  -3.835181   0.236845   0.029451
C  -2.729501  -0.520097   0.011715
C  -1.391933   0.061803   0.001873
C  -0.256159  -0.641759   0.047549
H  -4.793122  -0.206949   0.041945
H  -3.771899   1.317729   0.107624
H  -2.757056  -1.580341   0.042399
H  -1.363399   1.134601  -0.091613
H  -0.304020  -1.730288   0.146406
H   0.739201  -0.194577  -0.016002
