%chk=/home/boittier/MDCM/nms_sampling/butadiene_geom.xyz.dir/butadiene_2401.chk
%nproc=8
%mem=16000MB
#p B2PLYPD3/Def2QZVP 

butadiene

0 1
C  -3.795518   0.257748   0.098238
C  -2.700753  -0.525177  -0.062095
C  -1.419106   0.016747  -0.070993
C  -0.300637  -0.612859   0.099259
H  -4.738454  -0.185543   0.243930
H  -3.717456   1.294237  -0.072458
H  -2.798112  -1.618569   0.003001
H  -1.339624   1.077346   0.081811
H  -0.339102  -1.656882   0.219490
H   0.731445  -0.191236   0.102023
