%chk=/home/boittier/MDCM/nms_sampling/butadiene_geom.xyz.dir/butadiene_926.chk
%nproc=8
%mem=16000MB
#p B2PLYPD3/Def2QZVP 

butadiene

0 1
C  -3.835031   0.223718   0.021598
C  -2.713169  -0.497677   0.034980
C  -1.386534   0.068558   0.017357
C  -0.273130  -0.651439   0.027322
H  -4.778930  -0.247816   0.024631
H  -3.844255   1.301969  -0.011511
H  -2.809490  -1.578120   0.021637
H  -1.290758   1.128526  -0.054631
H  -0.312368  -1.729168   0.107091
H   0.715277  -0.205468   0.022239

