%chk=/home/boittier/MDCM/nms_sampling/butadiene_geom.xyz.dir/butadiene_552.chk
%nproc=8
%mem=16000MB
#p B2PLYPD3/Def2QZVP 

butadiene

0 1
C  -3.843816   0.216193   0.009621
C  -2.712460  -0.495094   0.051513
C  -1.386163   0.082813   0.017331
C  -0.267983  -0.663097   0.021492
H  -4.813586  -0.242192   0.018662
H  -3.806301   1.318543  -0.089827
H  -2.715501  -1.566992   0.124944
H  -1.316054   1.159911   0.085571
H  -0.350172  -1.752556   0.003629
H   0.710416  -0.209282   0.022145
