%chk=/home/boittier/MDCM/nms_sampling/butadiene_geom.xyz.dir/butadiene_68.chk
%nproc=8
%mem=16000MB
#p B2PLYPD3/Def2QZVP 

butadiene

0 1
C  -3.854683   0.217397   0.019960
C  -2.717251  -0.496164   0.038564
C  -1.374643   0.083963   0.013965
C  -0.262986  -0.660634   0.024347
H  -4.855760  -0.246531   0.005926
H  -3.845555   1.296519  -0.050246
H  -2.769161  -1.585502   0.125278
H  -1.281587   1.156800   0.013623
H  -0.283478  -1.752495   0.026963
H   0.729175  -0.209258   0.070432
