%chk=/home/boittier/MDCM/nms_sampling/butadiene_geom.xyz.dir/butadiene_1426.chk
%nproc=8
%mem=16000MB
#p B2PLYPD3/Def2QZVP 

butadiene

0 1
C  -3.846659   0.218341   0.042686
C  -2.717665  -0.476244  -0.007843
C  -1.378381   0.063105   0.000012
C  -0.266791  -0.649497   0.062317
H  -4.806748  -0.331076   0.158749
H  -3.879263   1.280024  -0.015777
H  -2.790363  -1.592605   0.069798
H  -1.249303   1.172543  -0.114954
H  -0.325685  -1.728502   0.010219
H   0.756591  -0.266689   0.058087
