%chk=/home/boittier/MDCM/nms_sampling/butadiene_geom.xyz.dir/butadiene_819.chk
%nproc=8
%mem=16000MB
#p B2PLYPD3/Def2QZVP 

butadiene

0 1
C  -3.834624   0.241437   0.034156
C  -2.716845  -0.527676   0.020608
C  -1.387327   0.066587   0.008436
C  -0.263841  -0.646679   0.038877
H  -4.821894  -0.203245   0.039236
H  -3.784832   1.307809   0.005756
H  -2.810809  -1.598207  -0.035035
H  -1.378746   1.144022  -0.086495
H  -0.301055  -1.728212   0.161674
H   0.712290  -0.156884  -0.001497
