%chk=/home/boittier/MDCM/nms_sampling/butadiene_geom.xyz.dir/butadiene_924.chk
%nproc=8
%mem=16000MB
#p B2PLYPD3/Def2QZVP 

butadiene

0 1
C  -3.846346   0.225805  -0.002240
C  -2.720376  -0.508480   0.059383
C  -1.386277   0.071402   0.038076
C  -0.263259  -0.653606   0.007237
H  -4.840213  -0.230553   0.000644
H  -3.763795   1.329361  -0.062244
H  -2.737183  -1.582170   0.092059
H  -1.303160   1.155352   0.060544
H  -0.298099  -1.722576   0.074449
H   0.729740  -0.182607  -0.044228

