%chk=/home/boittier/MDCM/nms_sampling/butadiene_geom.xyz.dir/butadiene_2261.chk
%nproc=8
%mem=16000MB
#p B2PLYPD3/Def2QZVP 

butadiene

0 1
C  -3.851067   0.197428  -0.071452
C  -2.703395  -0.480277   0.143803
C  -1.394558   0.118920   0.054605
C  -0.262549  -0.676803  -0.020249
H  -4.760652  -0.304963  -0.142865
H  -3.950817   1.319869   0.135095
H  -2.661073  -1.547615   0.090811
H  -1.310139   1.271222   0.138313
H  -0.435071  -1.767837   0.044203
H   0.854169  -0.444222  -0.197177

