%chk=/home/boittier/MDCM/nms_sampling/butadiene_geom.xyz.dir/butadiene_1922.chk
%nproc=8
%mem=16000MB
#p B2PLYPD3/Def2QZVP 

butadiene

0 1
C  -3.839877   0.257997  -0.036926
C  -2.747459  -0.513545   0.092029
C  -1.378506   0.001035   0.130889
C  -0.233314  -0.609629  -0.043135
H  -4.805454  -0.210378  -0.136616
H  -3.799477   1.290942  -0.107463
H  -2.817130  -1.650687   0.109801
H  -1.312630   1.051694  -0.115875
H  -0.310098  -1.702100   0.042985
H   0.628714  -0.064333  -0.190589
