%chk=/home/boittier/MDCM/nms_sampling/butadiene_geom.xyz.dir/butadiene_917.chk
%nproc=8
%mem=16000MB
#p B2PLYPD3/Def2QZVP 

butadiene

0 1
C  -3.852893   0.225258   0.022578
C  -2.716042  -0.490747   0.023862
C  -1.379951   0.062530  -0.008251
C  -0.258648  -0.659860   0.044209
H  -4.818547  -0.235798   0.092033
H  -3.805169   1.289103   0.049422
H  -2.775812  -1.574625   0.096538
H  -1.342203   1.137038  -0.016882
H  -0.253059  -1.736424   0.045956
H   0.661405  -0.141794   0.092826

