%chk=/home/boittier/MDCM/nms_sampling/butadiene_geom.xyz.dir/butadiene_2554.chk
%nproc=8
%mem=16000MB
#p B2PLYPD3/Def2QZVP 

butadiene

0 1
C  -3.805856   0.247898   0.087943
C  -2.747351  -0.510206  -0.015471
C  -1.403298   0.024537  -0.024082
C  -0.242350  -0.627362   0.077438
H  -4.819620  -0.265274  -0.008487
H  -3.816486   1.292194   0.004272
H  -3.002416  -1.566253  -0.303604
H  -1.344330   1.096184  -0.221227
H  -0.121480  -1.673717   0.342141
H   0.693862  -0.130863  -0.089413
