%chk=/home/boittier/MDCM/nms_sampling/butadiene_geom.xyz.dir/butadiene_338.chk
%nproc=8
%mem=16000MB
#p B2PLYPD3/Def2QZVP 

butadiene

0 1
C  -3.849713   0.233709   0.023711
C  -2.728725  -0.513124   0.016241
C  -1.383091   0.054981   0.008908
C  -0.250930  -0.644225   0.038350
H  -4.834813  -0.223425   0.131956
H  -3.768440   1.309608  -0.001441
H  -2.793312  -1.582291   0.062951
H  -1.293358   1.156572  -0.039312
H  -0.268843  -1.697703   0.083499
H   0.702621  -0.160481   0.056459

