%chk=/home/boittier/MDCM/nms_sampling/butadiene_geom.xyz.dir/butadiene_855.chk
%nproc=8
%mem=16000MB
#p B2PLYPD3/Def2QZVP 

butadiene

0 1
C  -3.845259   0.217643   0.032873
C  -2.722043  -0.485549   0.023112
C  -1.379720   0.080839  -0.007479
C  -0.259089  -0.664512   0.050457
H  -4.787878  -0.318301  -0.023831
H  -3.840315   1.290210   0.085610
H  -2.805730  -1.562492   0.051691
H  -1.283231   1.147026  -0.073319
H  -0.328661  -1.737149   0.089921
H   0.703260  -0.198346   0.002909
