%chk=/home/boittier/MDCM/nms_sampling/butadiene_geom.xyz.dir/butadiene_99.chk
%nproc=8
%mem=16000MB
#p B2PLYPD3/Def2QZVP 

butadiene

0 1
C  -3.856836   0.210548   0.047920
C  -2.715618  -0.484892  -0.003188
C  -1.376706   0.084967  -0.000465
C  -0.257471  -0.666032   0.048575
H  -4.844081  -0.242619   0.044218
H  -3.846852   1.270345  -0.003631
H  -2.777767  -1.550563   0.077900
H  -1.312712   1.161567  -0.057467
H  -0.304037  -1.761469   0.124580
H   0.738221  -0.212273   0.031979
