%chk=/home/boittier/MDCM/nms_sampling/butadiene_geom.xyz.dir/butadiene_869.chk
%nproc=8
%mem=16000MB
#p B2PLYPD3/Def2QZVP 

butadiene

0 1
C  -3.828469   0.219457   0.027946
C  -2.716598  -0.499284   0.014480
C  -1.389204   0.089304   0.008540
C  -0.271629  -0.660737   0.045040
H  -4.806078  -0.260390   0.080683
H  -3.823394   1.290674  -0.018400
H  -2.799656  -1.577971   0.106513
H  -1.336568   1.149448  -0.019869
H  -0.319507  -1.734728   0.039153
H   0.740959  -0.252071   0.005306

