%chk=/home/boittier/MDCM/nms_sampling/butadiene_geom.xyz.dir/butadiene_2.chk
%nproc=8
%mem=16000MB
#p B2PLYPD3/Def2QZVP 

butadiene

0 1
C  -3.832384   0.238404   0.030920
C  -2.725855  -0.517162   0.014203
C  -1.389739   0.056271  -0.016652
C  -0.259802  -0.645986   0.049960
H  -4.811884  -0.212597   0.088298
H  -3.829509   1.338173   0.071681
H  -2.792550  -1.598731   0.091648
H  -1.327320   1.127338  -0.026007
H  -0.242516  -1.719858   0.076623
H   0.689092  -0.139193   0.101843
