%chk=/home/boittier/MDCM/nms_sampling/butadiene_geom.xyz.dir/butadiene_738.chk
%nproc=8
%mem=16000MB
#p B2PLYPD3/Def2QZVP 

butadiene

0 1
C  -3.837163   0.235457   0.032439
C  -2.719428  -0.520035   0.012751
C  -1.383375   0.068530   0.010239
C  -0.264571  -0.645707   0.036312
H  -4.815067  -0.216055   0.095413
H  -3.790725   1.318645  -0.021033
H  -2.757722  -1.591883   0.054850
H  -1.367631   1.146006  -0.068844
H  -0.326712  -1.730174   0.094576
H   0.700411  -0.208457   0.077822

