%chk=/home/boittier/MDCM/nms_sampling/butadiene_geom.xyz.dir/butadiene_985.chk
%nproc=8
%mem=16000MB
#p B2PLYPD3/Def2QZVP 

butadiene

0 1
C  -3.843755   0.213562   0.052713
C  -2.716262  -0.467636   0.000629
C  -1.372979   0.065962  -0.039058
C  -0.266362  -0.664319   0.081617
H  -4.764176  -0.314032   0.042925
H  -3.926876   1.271199   0.105001
H  -2.772912  -1.541013  -0.016454
H  -1.311849   1.129610  -0.068496
H  -0.392555  -1.743759   0.113180
H   0.735728  -0.175530  -0.015716
