%chk=/home/boittier/MDCM/nms_sampling/butadiene_geom.xyz.dir/butadiene_223.chk
%nproc=8
%mem=16000MB
#p B2PLYPD3/Def2QZVP 

butadiene

0 1
C  -3.833676   0.219262   0.007322
C  -2.704984  -0.490145   0.049859
C  -1.391435   0.078280   0.045032
C  -0.272540  -0.665408   0.011195
H  -4.809271  -0.235466   0.012193
H  -3.851168   1.289427  -0.127137
H  -2.784157  -1.587573   0.109350
H  -1.353915   1.158734   0.004683
H  -0.316063  -1.744136   0.000396
H   0.721296  -0.193153  -0.011220

