%chk=/home/boittier/MDCM/nms_sampling/butadiene_geom.xyz.dir/butadiene_776.chk
%nproc=8
%mem=16000MB
#p B2PLYPD3/Def2QZVP 

butadiene

0 1
C  -3.857533   0.214165   0.001197
C  -2.721488  -0.492010   0.048647
C  -1.366018   0.084343   0.039486
C  -0.259923  -0.667586   0.021195
H  -4.829573  -0.257495  -0.001247
H  -3.837843   1.300937  -0.017619
H  -2.788104  -1.579833   0.110387
H  -1.323585   1.183595  -0.021000
H  -0.299822  -1.735639   0.017998
H   0.713595  -0.185398  -0.075037
