%chk=/home/boittier/MDCM/nms_sampling/butadiene_geom.xyz.dir/butadiene_1605.chk
%nproc=8
%mem=16000MB
#p B2PLYPD3/Def2QZVP 

butadiene

0 1
C  -3.826092   0.234561  -0.030584
C  -2.718506  -0.532610   0.077886
C  -1.386903   0.056833   0.059371
C  -0.260108  -0.632796  -0.001964
H  -4.835874  -0.167414   0.010719
H  -3.704375   1.355337  -0.000888
H  -2.879052  -1.586168   0.102227
H  -1.422995   1.111609   0.063574
H  -0.375368  -1.704393   0.065436
H   0.700855  -0.164776  -0.148475

