%chk=/home/boittier/MDCM/nms_sampling/butadiene_geom.xyz.dir/butadiene_1331.chk
%nproc=8
%mem=16000MB
#p B2PLYPD3/Def2QZVP 

butadiene

0 1
C  -3.828557   0.209482   0.056983
C  -2.715483  -0.486392  -0.000375
C  -1.383989   0.093475  -0.014252
C  -0.293803  -0.667292   0.053623
H  -4.754402  -0.294469   0.008184
H  -3.789673   1.304927   0.083850
H  -2.718222  -1.567679  -0.035621
H  -1.220142   1.161186  -0.194689
H  -0.355054  -1.788715   0.170259
H   0.683775  -0.194389   0.109699
