%chk=/home/boittier/MDCM/nms_sampling/butadiene_geom.xyz.dir/butadiene_2529.chk
%nproc=8
%mem=16000MB
#p B2PLYPD3/Def2QZVP 

butadiene

0 1
C  -3.878402   0.186800  -0.020154
C  -2.710535  -0.475455   0.112549
C  -1.342231   0.121577   0.020170
C  -0.278034  -0.696430   0.019525
H  -4.878927  -0.248931   0.025548
H  -3.873180   1.262219  -0.192201
H  -2.792868  -1.556831   0.029900
H  -1.259148   1.263615   0.109860
H  -0.275668  -1.749321  -0.218969
H   0.743665  -0.197876   0.023165

