%chk=/home/boittier/MDCM/nms_sampling/butadiene_geom.xyz.dir/butadiene_1329.chk
%nproc=8
%mem=16000MB
#p B2PLYPD3/Def2QZVP 

butadiene

0 1
C  -3.840100   0.215903  -0.017377
C  -2.723081  -0.497060   0.059415
C  -1.383686   0.079243   0.047706
C  -0.265985  -0.650894   0.008861
H  -4.797001  -0.235261   0.152589
H  -3.827818   1.252837  -0.076407
H  -2.801611  -1.569474   0.072822
H  -1.280844   1.183195   0.032604
H  -0.355851  -1.727445   0.011784
H   0.805700  -0.268270  -0.021118
