%chk=/home/boittier/MDCM/nms_sampling/butadiene_geom.xyz.dir/butadiene_820.chk
%nproc=8
%mem=16000MB
#p B2PLYPD3/Def2QZVP 

butadiene

0 1
C  -3.838376   0.217068   0.010591
C  -2.721759  -0.501076   0.047221
C  -1.382405   0.092161   0.028643
C  -0.273273  -0.666539   0.021858
H  -4.813050  -0.261901   0.055877
H  -3.788768   1.321199  -0.119673
H  -2.714513  -1.578538   0.079800
H  -1.298833   1.171218   0.031054
H  -0.329240  -1.737063   0.001023
H   0.723479  -0.211583   0.003428

