%chk=/home/boittier/MDCM/nms_sampling/butadiene_geom.xyz.dir/butadiene_2630.chk
%nproc=8
%mem=16000MB
#p B2PLYPD3/Def2QZVP 

butadiene

0 1
C  -3.848639   0.206710  -0.030309
C  -2.702012  -0.467141   0.057142
C  -1.382036   0.109860   0.067113
C  -0.297547  -0.686889   0.000808
H  -4.789216  -0.308067   0.169950
H  -3.869442   1.192736  -0.022204
H  -2.672945  -1.525802   0.174249
H  -1.229851   1.183611  -0.054753
H  -0.223430  -1.759505  -0.072919
H   0.725419  -0.300019   0.031940
