%chk=/home/boittier/MDCM/nms_sampling/butadiene_geom.xyz.dir/butadiene_1243.chk
%nproc=8
%mem=16000MB
#p B2PLYPD3/Def2QZVP 

butadiene

0 1
C  -3.855217   0.214696   0.006839
C  -2.719055  -0.475681   0.060574
C  -1.388026   0.092885   0.044806
C  -0.261751  -0.677504   0.005837
H  -4.806789  -0.305115   0.039181
H  -3.897198   1.254949  -0.245741
H  -2.699263  -1.547240   0.103188
H  -1.217329   1.140026   0.080956
H  -0.235388  -1.758046  -0.050668
H   0.731208  -0.216350   0.022038

