%chk=/home/boittier/MDCM/nms_sampling/butadiene_geom.xyz.dir/butadiene_190.chk
%nproc=8
%mem=16000MB
#p B2PLYPD3/Def2QZVP 

butadiene

0 1
C  -3.848222   0.214630   0.006584
C  -2.724554  -0.482223   0.045956
C  -1.376155   0.079046   0.039407
C  -0.265320  -0.666265   0.010988
H  -4.780786  -0.292218   0.012412
H  -3.825621   1.290748  -0.032997
H  -2.791195  -1.557796   0.081155
H  -1.286935   1.136911  -0.040807
H  -0.270891  -1.731666   0.073579
H   0.709663  -0.185430   0.007735

