%chk=/home/boittier/MDCM/nms_sampling/butadiene_geom.xyz.dir/butadiene_939.chk
%nproc=8
%mem=16000MB
#p B2PLYPD3/Def2QZVP 

butadiene

0 1
C  -3.836734   0.220653   0.014862
C  -2.706600  -0.489564   0.044399
C  -1.389492   0.081269   0.021427
C  -0.275009  -0.663276   0.019802
H  -4.783580  -0.296187   0.002693
H  -3.861476   1.316568  -0.074686
H  -2.756023  -1.577294   0.145033
H  -1.333805   1.158644   0.019889
H  -0.321455  -1.740675  -0.007982
H   0.737300  -0.249640   0.068257

