%chk=/home/boittier/MDCM/nms_sampling/butadiene_geom.xyz.dir/butadiene_1184.chk
%nproc=8
%mem=16000MB
#p B2PLYPD3/Def2QZVP 

butadiene

0 1
C  -3.864384   0.225626   0.002047
C  -2.721177  -0.512590   0.060433
C  -1.374491   0.071101   0.045652
C  -0.247951  -0.656146  -0.005117
H  -4.857057  -0.136323  -0.075817
H  -3.817164   1.305093  -0.124294
H  -2.830703  -1.618384   0.233504
H  -1.334551   1.138881   0.083079
H  -0.183661  -1.701849  -0.018244
H   0.693554  -0.151806   0.043921

