%chk=/home/boittier/MDCM/nms_sampling/butadiene_geom.xyz.dir/butadiene_1870.chk
%nproc=8
%mem=16000MB
#p B2PLYPD3/Def2QZVP 

butadiene

0 1
C  -3.869102   0.211762   0.044817
C  -2.712846  -0.481432   0.001399
C  -1.365020   0.080298   0.003077
C  -0.255473  -0.657855   0.048474
H  -4.790730  -0.294503  -0.007457
H  -3.884751   1.298476   0.029850
H  -2.766815  -1.564875   0.062041
H  -1.300679   1.120071  -0.049421
H  -0.419585  -1.759618   0.166048
H   0.767028  -0.237219  -0.051996

