%chk=/home/boittier/MDCM/nms_sampling/butadiene_geom.xyz.dir/butadiene_734.chk
%nproc=8
%mem=16000MB
#p B2PLYPD3/Def2QZVP 

butadiene

0 1
C  -3.836931   0.224150   0.022300
C  -2.718037  -0.505523   0.019577
C  -1.387975   0.060241   0.001537
C  -0.263657  -0.650028   0.042489
H  -4.836160  -0.197117   0.092393
H  -3.792161   1.325205   0.053086
H  -2.837777  -1.577911   0.044203
H  -1.307650   1.147872  -0.015039
H  -0.252041  -1.733136   0.133002
H   0.686936  -0.133948  -0.004105
