%chk=/home/boittier/MDCM/nms_sampling/butadiene_geom.xyz.dir/butadiene_2236.chk
%nproc=8
%mem=16000MB
#p B2PLYPD3/Def2QZVP 

butadiene

0 1
C  -3.810806   0.204612  -0.021209
C  -2.703947  -0.491415   0.097253
C  -1.382645   0.105409   0.070399
C  -0.289915  -0.661893  -0.002423
H  -4.833577  -0.216965  -0.139296
H  -3.835568   1.217653  -0.119171
H  -2.892477  -1.569229   0.165168
H  -1.339397   1.112701  -0.038201
H  -0.434399  -1.781910  -0.180750
H   0.738217  -0.247263  -0.070461

