%chk=/home/boittier/MDCM/nms_sampling/butadiene_geom.xyz.dir/butadiene_1820.chk
%nproc=8
%mem=16000MB
#p B2PLYPD3/Def2QZVP 

butadiene

0 1
C  -3.832654   0.211551  -0.017991
C  -2.712667  -0.505146   0.056792
C  -1.392964   0.094090   0.039523
C  -0.275104  -0.658086   0.012724
H  -4.858094  -0.216865   0.151535
H  -3.761915   1.307097  -0.106977
H  -2.759021  -1.574985   0.176667
H  -1.251206   1.161162   0.145041
H  -0.351866  -1.722217  -0.039416
H   0.732615  -0.261712  -0.030693
