%chk=/home/boittier/MDCM/nms_sampling/butadiene_geom.xyz.dir/butadiene_1290.chk
%nproc=8
%mem=16000MB
#p B2PLYPD3/Def2QZVP 

butadiene

0 1
C  -3.846858   0.220584  -0.006597
C  -2.730988  -0.489182   0.049406
C  -1.371136   0.053996   0.054522
C  -0.257730  -0.658627  -0.009249
H  -4.822026  -0.232232   0.024492
H  -3.829671   1.275896  -0.080122
H  -2.801475  -1.560391   0.233049
H  -1.255595   1.172777   0.061464
H  -0.275381  -1.701114   0.033181
H   0.644894  -0.093637   0.050687
