%chk=/home/boittier/MDCM/nms_sampling/butadiene_geom.xyz.dir/butadiene_1518.chk
%nproc=8
%mem=16000MB
#p B2PLYPD3/Def2QZVP 

butadiene

0 1
C  -3.865350   0.200690   0.004880
C  -2.726038  -0.466302   0.036312
C  -1.364072   0.089174   0.050603
C  -0.249428  -0.673345   0.003143
H  -4.774163  -0.291206   0.093674
H  -3.881653   1.263496  -0.116451
H  -2.772141  -1.514210   0.154012
H  -1.331167   1.141142   0.003015
H  -0.356204  -1.775003   0.031363
H   0.744019  -0.215420   0.058169

