%chk=/home/boittier/MDCM/nms_sampling/butadiene_geom.xyz.dir/butadiene_2547.chk
%nproc=8
%mem=16000MB
#p B2PLYPD3/Def2QZVP 

butadiene

0 1
C  -3.834939   0.230538  -0.043585
C  -2.721600  -0.534536   0.109493
C  -1.394307   0.055534   0.079421
C  -0.264225  -0.638062  -0.035000
H  -4.895367  -0.025028   0.110967
H  -3.575830   1.307271  -0.269885
H  -2.733603  -1.647707   0.096765
H  -1.350095   1.129182   0.157563
H  -0.350383  -1.700802  -0.066812
H   0.664996  -0.069214   0.032304

