%chk=/home/boittier/MDCM/nms_sampling/butadiene_geom.xyz.dir/butadiene_2876.chk
%nproc=8
%mem=16000MB
#p B2PLYPD3/Def2QZVP 

butadiene

0 1
C  -3.876988   0.196831   0.089036
C  -2.707405  -0.471435  -0.042230
C  -1.343984   0.123490  -0.021906
C  -0.260205  -0.688413   0.065662
H  -4.875271  -0.296279   0.016410
H  -4.016791   1.197627   0.175879
H  -2.790037  -1.558627  -0.176759
H  -1.310719   1.232405  -0.353333
H  -0.355281  -1.744393   0.393030
H   0.765402  -0.342031   0.098496
