%chk=/home/boittier/MDCM/nms_sampling/butadiene_geom.xyz.dir/butadiene_2758.chk
%nproc=8
%mem=16000MB
#p B2PLYPD3/Def2QZVP 

butadiene

0 1
C  -3.817740   0.251147  -0.061351
C  -2.731166  -0.509924   0.126879
C  -1.410080   0.039053   0.082479
C  -0.257024  -0.647067  -0.030032
H  -4.748680  -0.282850  -0.159240
H  -3.937682   1.332893   0.115856
H  -2.751279  -1.608902   0.144838
H  -1.314592   1.203650  -0.068766
H  -0.199520  -1.681588  -0.038118
H   0.761042  -0.174016  -0.077314

