%chk=/home/boittier/MDCM/nms_sampling/butadiene_geom.xyz.dir/butadiene_178.chk
%nproc=8
%mem=16000MB
#p B2PLYPD3/Def2QZVP 

butadiene

0 1
C  -3.841144   0.238353  -0.005276
C  -2.728040  -0.504489   0.064419
C  -1.389063   0.050868   0.024070
C  -0.254381  -0.647595   0.016553
H  -4.778279  -0.256282  -0.002551
H  -3.822682   1.306798   0.014986
H  -2.762288  -1.581527   0.084776
H  -1.345375   1.150060   0.022080
H  -0.267046  -1.720849   0.038172
H   0.722688  -0.160265  -0.009512
