%chk=/home/boittier/MDCM/nms_sampling/butadiene_geom.xyz.dir/butadiene_1838.chk
%nproc=8
%mem=16000MB
#p B2PLYPD3/Def2QZVP 

butadiene

0 1
C  -3.843067   0.209000   0.007427
C  -2.705123  -0.480483   0.040870
C  -1.373152   0.106141   0.049185
C  -0.285062  -0.685932   0.004099
H  -4.778990  -0.292657  -0.013911
H  -3.841975   1.286522  -0.117084
H  -2.734477  -1.580071   0.223666
H  -1.312269   1.172733   0.052940
H  -0.315622  -1.758559   0.006289
H   0.628268  -0.205615   0.001639
