%chk=/home/boittier/MDCM/nms_sampling/butadiene_geom.xyz.dir/butadiene_808.chk
%nproc=8
%mem=16000MB
#p B2PLYPD3/Def2QZVP 

butadiene

0 1
C  -3.845989   0.232802   0.004020
C  -2.730208  -0.512199   0.054146
C  -1.388126   0.058136   0.024363
C  -0.248188  -0.645375   0.021861
H  -4.853668  -0.212665   0.016835
H  -3.784404   1.336243  -0.075251
H  -2.741235  -1.582752   0.156254
H  -1.324021   1.138433   0.045054
H  -0.254717  -1.736017  -0.057909
H   0.702685  -0.162430   0.027200
