%chk=/home/boittier/MDCM/nms_sampling/butadiene_geom.xyz.dir/butadiene_55.chk
%nproc=8
%mem=16000MB
#p B2PLYPD3/Def2QZVP 

butadiene

0 1
C  -3.842934   0.217758   0.026416
C  -2.717621  -0.495740   0.011321
C  -1.387753   0.084935  -0.004892
C  -0.266421  -0.663490   0.050024
H  -4.809159  -0.242255   0.151003
H  -3.811964   1.276205   0.028191
H  -2.733951  -1.568028   0.053800
H  -1.293486   1.181008  -0.011709
H  -0.324479  -1.737046   0.093949
H   0.736393  -0.228155   0.032510

