%chk=/home/boittier/MDCM/nms_sampling/butadiene_geom.xyz.dir/butadiene_971.chk
%nproc=8
%mem=16000MB
#p B2PLYPD3/Def2QZVP 

butadiene

0 1
C  -3.839251   0.212049   0.046594
C  -2.720431  -0.495998   0.014907
C  -1.383141   0.105268  -0.027393
C  -0.263803  -0.672082   0.075633
H  -4.793836  -0.304460   0.007311
H  -3.778716   1.277605   0.120082
H  -2.790411  -1.572783  -0.055125
H  -1.322411   1.225195  -0.176014
H  -0.388207  -1.740631   0.061140
H   0.738015  -0.262609   0.016231
