%chk=/home/boittier/MDCM/nms_sampling/butadiene_geom.xyz.dir/butadiene_1505.chk
%nproc=8
%mem=16000MB
#p B2PLYPD3/Def2QZVP 

butadiene

0 1
C  -3.847785   0.228788   0.008511
C  -2.727235  -0.512837   0.059629
C  -1.382841   0.070590   0.048186
C  -0.260488  -0.649290   0.013188
H  -4.850473  -0.217269  -0.038126
H  -3.736431   1.313943  -0.135592
H  -2.699413  -1.544976  -0.001942
H  -1.341163   1.141056  -0.000085
H  -0.262869  -1.724073   0.069317
H   0.706176  -0.225613  -0.125949
