%chk=/home/boittier/MDCM/nms_sampling/butadiene_geom.xyz.dir/butadiene_1878.chk
%nproc=8
%mem=16000MB
#p B2PLYPD3/Def2QZVP 

butadiene

0 1
C  -3.839622   0.214685   0.039501
C  -2.705143  -0.490141  -0.001861
C  -1.376032   0.107201  -0.001426
C  -0.283313  -0.682283   0.060706
H  -4.752364  -0.291559   0.036972
H  -3.840773   1.291849   0.085184
H  -2.766221  -1.597159   0.048162
H  -1.365175   1.171714  -0.069060
H  -0.348968  -1.745651   0.149452
H   0.693212  -0.219785  -0.096652

