%chk=/home/boittier/MDCM/nms_sampling/butadiene_geom.xyz.dir/butadiene_1024.chk
%nproc=8
%mem=16000MB
#p B2PLYPD3/Def2QZVP 

butadiene

0 1
C  -3.864525   0.201066   0.052169
C  -2.722278  -0.467702   0.021202
C  -1.371494   0.084780  -0.024223
C  -0.260212  -0.666420   0.058814
H  -4.846613  -0.276565  -0.016257
H  -3.844901   1.248269   0.038177
H  -2.698735  -1.552587  -0.100015
H  -1.235492   1.206696  -0.118501
H  -0.329371  -1.783909   0.145238
H   0.756445  -0.244650   0.047811

