%chk=/home/boittier/MDCM/nms_sampling/butadiene_geom.xyz.dir/butadiene_1266.chk
%nproc=8
%mem=16000MB
#p B2PLYPD3/Def2QZVP 

butadiene

0 1
C  -3.822654   0.243883   0.009934
C  -2.718180  -0.515029   0.064734
C  -1.409312   0.051403   0.033823
C  -0.269172  -0.646341   0.017951
H  -4.826085  -0.194742  -0.133607
H  -3.712378   1.316194  -0.020579
H  -2.694865  -1.637388   0.050349
H  -1.350378   1.133495  -0.063387
H  -0.266913  -1.726247   0.028024
H   0.678238  -0.120725  -0.060746
