%chk=/home/boittier/MDCM/nms_sampling/butadiene_geom.xyz.dir/butadiene_729.chk
%nproc=8
%mem=16000MB
#p B2PLYPD3/Def2QZVP 

butadiene

0 1
C  -3.851739   0.215615   0.001989
C  -2.718929  -0.494496   0.044055
C  -1.380356   0.082280   0.022179
C  -0.258703  -0.662420   0.020065
H  -4.832956  -0.235859   0.063102
H  -3.845563   1.286436  -0.008402
H  -2.766509  -1.570648   0.151069
H  -1.262796   1.181052   0.035384
H  -0.292432  -1.739942   0.020999
H   0.699492  -0.214756   0.041848
