%chk=/home/boittier/MDCM/nms_sampling/butadiene_geom.xyz.dir/butadiene_441.chk
%nproc=8
%mem=16000MB
#p B2PLYPD3/Def2QZVP 

butadiene

0 1
C  -3.836839   0.212574   0.019663
C  -2.711557  -0.491102   0.024015
C  -1.382721   0.083418   0.005248
C  -0.275678  -0.665379   0.040289
H  -4.826383  -0.226961   0.137177
H  -3.834152   1.294285  -0.007452
H  -2.777075  -1.568982   0.058438
H  -1.290351   1.150505  -0.024305
H  -0.307925  -1.731409   0.048475
H   0.694599  -0.197101   0.060816

