%chk=/home/boittier/MDCM/nms_sampling/butadiene_geom.xyz.dir/butadiene_355.chk
%nproc=8
%mem=16000MB
#p B2PLYPD3/Def2QZVP 

butadiene

0 1
C  -3.830505   0.237390  -0.005508
C  -2.723869  -0.520921   0.048434
C  -1.387890   0.060039   0.043902
C  -0.258509  -0.640990   0.014326
H  -4.829515  -0.204304   0.023534
H  -3.789599   1.329883  -0.021067
H  -2.763187  -1.606856   0.162221
H  -1.385837   1.155483   0.022746
H  -0.330012  -1.736612   0.017865
H   0.697220  -0.190860  -0.062538
