%chk=/home/boittier/MDCM/nms_sampling/butadiene_geom.xyz.dir/butadiene_1940.chk
%nproc=8
%mem=16000MB
#p B2PLYPD3/Def2QZVP 

butadiene

0 1
C  -3.866626   0.221637   0.060725
C  -2.741077  -0.495086  -0.005513
C  -1.402843   0.056002  -0.048242
C  -0.213328  -0.651743   0.055447
H  -4.875688  -0.109815   0.082460
H  -3.740769   1.338173   0.080796
H  -2.775175  -1.636182   0.057820
H  -1.391516   1.112646  -0.063471
H  -0.070482  -1.740108   0.146063
H   0.730334  -0.146018   0.287580

