%chk=/home/boittier/MDCM/nms_sampling/butadiene_geom.xyz.dir/butadiene_231.chk
%nproc=8
%mem=16000MB
#p B2PLYPD3/Def2QZVP 

butadiene

0 1
C  -3.836972   0.229702  -0.002166
C  -2.726396  -0.513376   0.060942
C  -1.387343   0.062599   0.019771
C  -0.263091  -0.649454   0.021739
H  -4.821122  -0.205301  -0.013211
H  -3.722647   1.339062   0.049326
H  -2.776990  -1.593254   0.056273
H  -1.363595   1.167104   0.003500
H  -0.248875  -1.716689   0.071965
H   0.690839  -0.163828  -0.036604

