%chk=/home/boittier/MDCM/nms_sampling/butadiene_geom.xyz.dir/butadiene_868.chk
%nproc=8
%mem=16000MB
#p B2PLYPD3/Def2QZVP 

butadiene

0 1
C  -3.844827   0.216678   0.000508
C  -2.716685  -0.494020   0.060203
C  -1.391364   0.082576   0.017605
C  -0.259712  -0.661218   0.021163
H  -4.843233  -0.220500   0.003124
H  -3.796308   1.282556   0.004657
H  -2.756457  -1.565269   0.069444
H  -1.322979   1.143526   0.031925
H  -0.284592  -1.747248   0.049656
H   0.737350  -0.221425  -0.008397
