%chk=/home/boittier/MDCM/nms_sampling/butadiene_geom.xyz.dir/butadiene_506.chk
%nproc=8
%mem=16000MB
#p B2PLYPD3/Def2QZVP 

butadiene

0 1
C  -3.833850   0.217503   0.030269
C  -2.713133  -0.487301   0.027219
C  -1.387601   0.082400   0.003077
C  -0.272044  -0.664775   0.036936
H  -4.780118  -0.289992  -0.001691
H  -3.811423   1.298318   0.041435
H  -2.761248  -1.568326   0.003753
H  -1.360077   1.184298  -0.059006
H  -0.331185  -1.758491   0.154640
H   0.706884  -0.236463   0.007426

