%chk=/home/boittier/MDCM/nms_sampling/butadiene_geom.xyz.dir/butadiene_717.chk
%nproc=8
%mem=16000MB
#p B2PLYPD3/Def2QZVP 

butadiene

0 1
C  -3.847710   0.232824   0.039846
C  -2.724943  -0.504978   0.007689
C  -1.382845   0.057093  -0.014851
C  -0.258233  -0.652695   0.057854
H  -4.817107  -0.256786   0.112222
H  -3.781891   1.317402  -0.015909
H  -2.783712  -1.586922   0.042350
H  -1.295954   1.166532   0.004446
H  -0.247279  -1.713143   0.081280
H   0.681936  -0.131845   0.029716

