%chk=/home/boittier/MDCM/nms_sampling/butadiene_geom.xyz.dir/butadiene_2044.chk
%nproc=8
%mem=16000MB
#p B2PLYPD3/Def2QZVP 

butadiene

0 1
C  -3.869684   0.194948   0.063584
C  -2.699192  -0.450309   0.004022
C  -1.362890   0.075504  -0.062896
C  -0.277978  -0.688492   0.100666
H  -4.802124  -0.295881  -0.077003
H  -3.918513   1.326364   0.259578
H  -2.666948  -1.468924  -0.135980
H  -1.260786   1.158597  -0.163300
H  -0.293120  -1.764492   0.201586
H   0.624431  -0.130974  -0.085261

