%chk=/home/boittier/MDCM/nms_sampling/butadiene_geom.xyz.dir/butadiene_2228.chk
%nproc=8
%mem=16000MB
#p B2PLYPD3/Def2QZVP 

butadiene

0 1
C  -3.882368   0.184003  -0.032492
C  -2.741457  -0.458247   0.098692
C  -1.341497   0.106827   0.025698
C  -0.249654  -0.688787   0.010844
H  -4.773912  -0.363889   0.026574
H  -3.782537   1.253394  -0.171291
H  -2.858163  -1.513225   0.319246
H  -1.246332   1.249287   0.281976
H  -0.321962  -1.681232  -0.273952
H   0.741089  -0.240446   0.017341

