%chk=/home/boittier/MDCM/nms_sampling/butadiene_geom.xyz.dir/butadiene_735.chk
%nproc=8
%mem=16000MB
#p B2PLYPD3/Def2QZVP 

butadiene

0 1
C  -3.853644   0.219327   0.040307
C  -2.721109  -0.492921   0.018229
C  -1.368416   0.081529  -0.025076
C  -0.259291  -0.660245   0.062263
H  -4.820352  -0.303890   0.090925
H  -3.862520   1.304577   0.000043
H  -2.781816  -1.578222   0.004828
H  -1.293796   1.150204  -0.027028
H  -0.353866  -1.744832   0.043794
H   0.722572  -0.206224   0.070389
