%chk=/home/boittier/MDCM/nms_sampling/butadiene_geom.xyz.dir/butadiene_1497.chk
%nproc=8
%mem=16000MB
#p B2PLYPD3/Def2QZVP 

butadiene

0 1
C  -3.858105   0.236789  -0.020670
C  -2.721954  -0.522432   0.090661
C  -1.375629   0.058066   0.058215
C  -0.250750  -0.645776  -0.007654
H  -4.900643  -0.197253  -0.129293
H  -3.837495   1.314362  -0.010189
H  -2.801159  -1.578599   0.126475
H  -1.271310   1.160356  -0.031959
H  -0.224505  -1.718896  -0.022777
H   0.697224  -0.131862  -0.041036

