%chk=/home/boittier/MDCM/nms_sampling/butadiene_geom.xyz.dir/butadiene_2655.chk
%nproc=8
%mem=16000MB
#p B2PLYPD3/Def2QZVP 

butadiene

0 1
C  -3.859432   0.232477  -0.026834
C  -2.723666  -0.516784   0.060621
C  -1.381004   0.018667   0.092219
C  -0.247106  -0.623179  -0.036614
H  -4.908765  -0.129842   0.044670
H  -3.807180   1.409828  -0.225701
H  -2.863327  -1.615970   0.348912
H  -1.188763   1.091862   0.210698
H  -0.145961  -1.680657  -0.000160
H   0.642178  -0.063578  -0.030399

