%chk=/home/boittier/MDCM/nms_sampling/butadiene_geom.xyz.dir/butadiene_2308.chk
%nproc=8
%mem=16000MB
#p B2PLYPD3/Def2QZVP 

butadiene

0 1
C  -3.869436   0.198292   0.064301
C  -2.725001  -0.458914  -0.011882
C  -1.383210   0.065739  -0.093591
C  -0.245919  -0.655973   0.105145
H  -4.771962  -0.318207   0.119482
H  -3.882926   1.280334   0.152086
H  -2.721516  -1.468457   0.062045
H  -1.185312   1.175972   0.047433
H  -0.355888  -1.709391   0.060008
H   0.805550  -0.323512   0.143039
