%chk=/home/boittier/MDCM/nms_sampling/butadiene_geom.xyz.dir/butadiene_402.chk
%nproc=8
%mem=16000MB
#p B2PLYPD3/Def2QZVP 

butadiene

0 1
C  -3.839086   0.237227   0.025166
C  -2.733857  -0.516924   0.031478
C  -1.385736   0.061825  -0.009294
C  -0.249378  -0.647633   0.046689
H  -4.821130  -0.228823   0.058825
H  -3.774440   1.311127  -0.009245
H  -2.804262  -1.587009   0.075505
H  -1.370503   1.152417   0.024782
H  -0.247446  -1.710920   0.024776
H   0.707598  -0.170589   0.045493

