%chk=/home/boittier/MDCM/nms_sampling/butadiene_geom.xyz.dir/butadiene_1918.chk
%nproc=8
%mem=16000MB
#p B2PLYPD3/Def2QZVP 

butadiene

0 1
C  -3.843637   0.235339  -0.016559
C  -2.725832  -0.503829   0.082734
C  -1.376858   0.045278   0.060126
C  -0.249878  -0.644791  -0.017502
H  -4.768337  -0.274297  -0.044045
H  -3.826773   1.336658  -0.086325
H  -2.894810  -1.603738   0.100397
H  -1.353477   1.168299   0.014593
H  -0.278551  -1.725700   0.037553
H   0.660275  -0.116298   0.020607
