%chk=/home/boittier/MDCM/nms_sampling/butadiene_geom.xyz.dir/butadiene_1705.chk
%nproc=8
%mem=16000MB
#p B2PLYPD3/Def2QZVP 

butadiene

0 1
C  -3.850115   0.211758   0.036674
C  -2.733104  -0.491114  -0.013059
C  -1.364354   0.068737  -0.015704
C  -0.245594  -0.647477   0.057365
H  -4.842877  -0.262836   0.185045
H  -3.836756   1.317167   0.088203
H  -2.827119  -1.550661   0.120198
H  -1.339088   1.159485  -0.038136
H  -0.379728  -1.775357   0.111315
H   0.721020  -0.202890   0.101651

