%chk=/home/boittier/MDCM/nms_sampling/butadiene_geom.xyz.dir/butadiene_1365.chk
%nproc=8
%mem=16000MB
#p B2PLYPD3/Def2QZVP 

butadiene

0 1
C  -3.852604   0.203888   0.046104
C  -2.715281  -0.475456  -0.000739
C  -1.371198   0.107045   0.005246
C  -0.273798  -0.687892   0.051671
H  -4.799478  -0.306095   0.112750
H  -3.881082   1.291755  -0.092125
H  -2.771676  -1.544953   0.076424
H  -1.293669   1.152445  -0.068765
H  -0.241627  -1.718122   0.016386
H   0.718985  -0.230611   0.066851

