%chk=/home/boittier/MDCM/nms_sampling/butadiene_geom.xyz.dir/butadiene_1050.chk
%nproc=8
%mem=16000MB
#p B2PLYPD3/Def2QZVP 

butadiene

0 1
C  -3.843419   0.205311   0.033700
C  -2.708309  -0.486931   0.027552
C  -1.376406   0.086949  -0.001677
C  -0.273201  -0.661919   0.051254
H  -4.831855  -0.234878  -0.028650
H  -3.812431   1.302526   0.092902
H  -2.782952  -1.593623  -0.013356
H  -1.343311   1.188600  -0.174622
H  -0.397591  -1.726346   0.068084
H   0.760110  -0.261043   0.022458
