%chk=/home/boittier/MDCM/nms_sampling/butadiene_geom.xyz.dir/butadiene_1212.chk
%nproc=8
%mem=16000MB
#p B2PLYPD3/Def2QZVP 

butadiene

0 1
C  -3.824670   0.225669  -0.010333
C  -2.709287  -0.501896   0.045441
C  -1.384643   0.089454   0.055413
C  -0.279485  -0.667290   0.002455
H  -4.774457  -0.244842   0.016874
H  -3.816631   1.293733   0.021785
H  -2.785372  -1.615335   0.177534
H  -1.392703   1.152276  -0.001755
H  -0.331521  -1.777818   0.082175
H   0.646281  -0.171973  -0.058728

