%chk=/home/boittier/MDCM/nms_sampling/butadiene_geom.xyz.dir/butadiene_1724.chk
%nproc=8
%mem=16000MB
#p B2PLYPD3/Def2QZVP 

butadiene

0 1
C  -3.840025   0.247410  -0.009150
C  -2.740440  -0.517337   0.063756
C  -1.386254   0.049909   0.051607
C  -0.256686  -0.646330  -0.008111
H  -4.809671  -0.249287   0.100763
H  -3.770967   1.314632  -0.155818
H  -2.762796  -1.588694   0.073641
H  -1.279925   1.093319   0.068585
H  -0.150877  -1.704152   0.054751
H   0.655419  -0.091515   0.042273
