%chk=/home/boittier/MDCM/nms_sampling/butadiene_geom.xyz.dir/butadiene_1691.chk
%nproc=8
%mem=16000MB
#p B2PLYPD3/Def2QZVP 

butadiene

0 1
C  -3.864461   0.202712   0.053620
C  -2.713774  -0.463146  -0.006568
C  -1.361445   0.076696  -0.018118
C  -0.268213  -0.672816   0.059390
H  -4.839420  -0.284314   0.105329
H  -3.820444   1.261071  -0.066288
H  -2.762761  -1.526504   0.086163
H  -1.310655   1.151098   0.023795
H  -0.309877  -1.774088   0.077450
H   0.700318  -0.148066   0.065037
