%chk=/home/boittier/MDCM/nms_sampling/butadiene_geom.xyz.dir/butadiene_1561.chk
%nproc=8
%mem=16000MB
#p B2PLYPD3/Def2QZVP 

butadiene

0 1
C  -3.842871   0.218217   0.057254
C  -2.726583  -0.491945  -0.003062
C  -1.384196   0.052793  -0.000478
C  -0.248510  -0.651746   0.057247
H  -4.878430  -0.184345   0.023974
H  -3.833125   1.331586  -0.003382
H  -2.808376  -1.545379  -0.033628
H  -1.360343   1.136010  -0.165684
H  -0.196029  -1.738710   0.129888
H   0.683115  -0.147147   0.013333
