%chk=/home/boittier/MDCM/nms_sampling/butadiene_geom.xyz.dir/butadiene_960.chk
%nproc=8
%mem=16000MB
#p B2PLYPD3/Def2QZVP 

butadiene

0 1
C  -3.821257   0.241473  -0.025890
C  -2.720345  -0.536601   0.078761
C  -1.389414   0.065842   0.052439
C  -0.269869  -0.641824   0.003037
H  -4.845374  -0.156800   0.036853
H  -3.831315   1.317919  -0.005032
H  -2.797095  -1.631835   0.038525
H  -1.357037   1.177749   0.011473
H  -0.310585  -1.718254   0.053772
H   0.739147  -0.170059  -0.100123

