%chk=/home/boittier/MDCM/nms_sampling/butadiene_geom.xyz.dir/butadiene_699.chk
%nproc=8
%mem=16000MB
#p B2PLYPD3/Def2QZVP 

butadiene

0 1
C  -3.843683   0.223795   0.002330
C  -2.726177  -0.497407   0.058154
C  -1.378083   0.060515   0.033628
C  -0.256972  -0.652043   0.015136
H  -4.837886  -0.229100   0.029866
H  -3.793230   1.298683  -0.106538
H  -2.797624  -1.580450   0.103647
H  -1.335124   1.160380   0.028155
H  -0.287501  -1.738436  -0.027894
H   0.690979  -0.147036   0.016477

