%chk=/home/boittier/MDCM/nms_sampling/butadiene_geom.xyz.dir/butadiene_723.chk
%nproc=8
%mem=16000MB
#p B2PLYPD3/Def2QZVP 

butadiene

0 1
C  -3.837334   0.211677  -0.001941
C  -2.711271  -0.493504   0.057486
C  -1.383070   0.096179   0.028364
C  -0.271336  -0.671263   0.014080
H  -4.820791  -0.237769  -0.016935
H  -3.843721   1.287020  -0.000237
H  -2.782728  -1.587715   0.139203
H  -1.323070   1.177746   0.030394
H  -0.340611  -1.722811   0.027290
H   0.723955  -0.233930  -0.001115

