%chk=/home/boittier/MDCM/nms_sampling/butadiene_geom.xyz.dir/butadiene_1812.chk
%nproc=8
%mem=16000MB
#p B2PLYPD3/Def2QZVP 

butadiene

0 1
C  -3.827853   0.240898   0.041303
C  -2.720386  -0.520229   0.008548
C  -1.398409   0.044972  -0.008891
C  -0.255398  -0.643512   0.040843
H  -4.828059  -0.166929   0.128380
H  -3.776065   1.371682  -0.021226
H  -2.784390  -1.605653   0.064692
H  -1.397355   1.099128  -0.087848
H  -0.257938  -1.714365   0.052754
H   0.656879  -0.089499   0.223395
