%chk=/home/boittier/MDCM/nms_sampling/butadiene_geom.xyz.dir/butadiene_2233.chk
%nproc=8
%mem=16000MB
#p B2PLYPD3/Def2QZVP 

butadiene

0 1
C  -3.863218   0.179331   0.097675
C  -2.720906  -0.433589  -0.028007
C  -1.362263   0.089852  -0.040154
C  -0.278217  -0.690831   0.093893
H  -4.809328  -0.383537  -0.096470
H  -3.860981   1.282583   0.172931
H  -2.844746  -1.522468  -0.191163
H  -1.149697   1.256229  -0.402953
H  -0.166523  -1.724562   0.217828
H   0.706285  -0.209516   0.043695

