%chk=/home/boittier/MDCM/nms_sampling/butadiene_geom.xyz.dir/butadiene_1.chk
%nproc=8
%mem=16000MB
#p B2PLYPD3/Def2QZVP 

butadiene

0 1
C  -3.832020   0.232538   0.001468
C  -2.720340  -0.517404   0.051059
C  -1.396081   0.066803   0.030485
C  -0.257561  -0.648186   0.025120
H  -4.841964  -0.197803   0.041820
H  -3.771467   1.312712   0.007783
H  -2.798275  -1.577092   0.012952
H  -1.375466   1.146511  -0.043486
H  -0.285254  -1.715310   0.072108
H   0.734666  -0.193748  -0.065679
