%chk=/home/boittier/MDCM/nms_sampling/butadiene_geom.xyz.dir/butadiene_532.chk
%nproc=8
%mem=16000MB
#p B2PLYPD3/Def2QZVP 

butadiene

0 1
C  -3.827450   0.231952   0.031910
C  -2.716689  -0.513917   0.017717
C  -1.397667   0.059481  -0.012145
C  -0.270522  -0.645917   0.046579
H  -4.840449  -0.215695   0.072455
H  -3.741469   1.331256   0.048246
H  -2.822010  -1.584674   0.076413
H  -1.317772   1.151944  -0.043083
H  -0.231819  -1.723499   0.069661
H   0.693226  -0.159329   0.107971
