%chk=/home/boittier/MDCM/nms_sampling/butadiene_geom.xyz.dir/butadiene_1906.chk
%nproc=8
%mem=16000MB
#p B2PLYPD3/Def2QZVP 

butadiene

0 1
C  -3.839699   0.203093   0.033369
C  -2.711846  -0.491841   0.010621
C  -1.370642   0.095677  -0.032104
C  -0.278484  -0.662301   0.055326
H  -4.809519  -0.237957   0.121531
H  -3.868630   1.301757   0.080770
H  -2.842592  -1.565465   0.124029
H  -1.309364   1.184305   0.008235
H  -0.355695  -1.771185   0.051332
H   0.764255  -0.249111   0.168091
