%chk=/home/boittier/MDCM/nms_sampling/butadiene_geom.xyz.dir/butadiene_281.chk
%nproc=8
%mem=16000MB
#p B2PLYPD3/Def2QZVP 

butadiene

0 1
C  -3.847888   0.227468   0.022583
C  -2.733450  -0.509131   0.034647
C  -1.380870   0.067625  -0.001086
C  -0.252701  -0.651118   0.044093
H  -4.821909  -0.234555   0.041540
H  -3.806393   1.335981   0.035130
H  -2.763335  -1.581528  -0.001344
H  -1.288215   1.148611  -0.043312
H  -0.253069  -1.730790   0.087727
H   0.705993  -0.168275  -0.000651

