%chk=/home/boittier/MDCM/nms_sampling/butadiene_geom.xyz.dir/butadiene_920.chk
%nproc=8
%mem=16000MB
#p B2PLYPD3/Def2QZVP 

butadiene

0 1
C  -3.853168   0.220377  -0.002156
C  -2.717190  -0.487461   0.061657
C  -1.374022   0.070369   0.025064
C  -0.257988  -0.655841   0.005865
H  -4.815037  -0.296096   0.033987
H  -3.849892   1.287519  -0.076529
H  -2.784179  -1.562565   0.135567
H  -1.295366   1.134105   0.097748
H  -0.361623  -1.736285   0.027234
H   0.715534  -0.204253   0.068318

