%chk=/home/boittier/MDCM/nms_sampling/butadiene_geom.xyz.dir/butadiene_1934.chk
%nproc=8
%mem=16000MB
#p B2PLYPD3/Def2QZVP 

butadiene

0 1
C  -3.854045   0.232712  -0.000940
C  -2.763291  -0.528736   0.064085
C  -1.395403   0.046483   0.043537
C  -0.207392  -0.627224  -0.004169
H  -4.923543  -0.110241  -0.219592
H  -3.628816   1.308059   0.137025
H  -2.958831  -1.589382   0.131652
H  -1.259410   1.067377  -0.075615
H  -0.067877  -1.707045   0.165962
H   0.676564  -0.077080  -0.050172

