%chk=/home/boittier/MDCM/nms_sampling/butadiene_geom.xyz.dir/butadiene_1537.chk
%nproc=8
%mem=16000MB
#p B2PLYPD3/Def2QZVP 

butadiene

0 1
C  -3.870858   0.191624   0.031092
C  -2.720969  -0.465980   0.007545
C  -1.356924   0.083926  -0.009455
C  -0.259048  -0.669436   0.047258
H  -4.833016  -0.240085   0.153520
H  -3.808214   1.297526   0.048781
H  -2.747540  -1.553289   0.090888
H  -1.287490   1.172335  -0.079917
H  -0.352995  -1.727529   0.046712
H   0.694415  -0.227000   0.167792

