%chk=/home/boittier/MDCM/nms_sampling/butadiene_geom.xyz.dir/butadiene_488.chk
%nproc=8
%mem=16000MB
#p B2PLYPD3/Def2QZVP 

butadiene

0 1
C  -3.840300   0.233118   0.005010
C  -2.734562  -0.513059   0.048037
C  -1.387150   0.057896   0.029240
C  -0.255171  -0.646581   0.021090
H  -4.811501  -0.218253   0.044316
H  -3.776096   1.338283  -0.008132
H  -2.770085  -1.590375   0.026455
H  -1.294128   1.134511  -0.034030
H  -0.236790  -1.734438   0.084087
H   0.689810  -0.124848  -0.024667
