%chk=/home/boittier/MDCM/nms_sampling/butadiene_geom.xyz.dir/butadiene_1911.chk
%nproc=8
%mem=16000MB
#p B2PLYPD3/Def2QZVP 

butadiene

0 1
C  -3.823644   0.237494   0.001395
C  -2.716425  -0.530734   0.057317
C  -1.396519   0.062142   0.063623
C  -0.261496  -0.637542  -0.002771
H  -4.868313  -0.116809  -0.124035
H  -3.757812   1.302302  -0.098347
H  -2.815290  -1.589720   0.165701
H  -1.429516   1.124107   0.038702
H  -0.279990  -1.750886   0.062568
H   0.706627  -0.181361  -0.131365
