%chk=/home/boittier/MDCM/nms_sampling/butadiene_geom.xyz.dir/butadiene_2589.chk
%nproc=8
%mem=16000MB
#p B2PLYPD3/Def2QZVP 

butadiene

0 1
C  -3.835813   0.174168  -0.033419
C  -2.682404  -0.449167   0.088344
C  -1.395196   0.113506   0.114218
C  -0.310286  -0.687402  -0.058088
H  -4.769373  -0.268192   0.031956
H  -3.722602   1.287119  -0.299029
H  -2.741568  -1.550257   0.254343
H  -1.293825   1.267211   0.042606
H  -0.365406  -1.792908  -0.096469
H   0.747568  -0.319047   0.126646

