%chk=/home/boittier/MDCM/nms_sampling/butadiene_geom.xyz.dir/butadiene_1650.chk
%nproc=8
%mem=16000MB
#p B2PLYPD3/Def2QZVP 

butadiene

0 1
C  -3.844930   0.215943   0.026385
C  -2.716030  -0.496212   0.033542
C  -1.378509   0.091958  -0.004033
C  -0.277532  -0.665096   0.043174
H  -4.814118  -0.241946   0.083223
H  -3.786147   1.297519  -0.055611
H  -2.659226  -1.602946   0.072500
H  -1.338113   1.181307  -0.023700
H  -0.377311  -1.752136  -0.037774
H   0.762512  -0.238161   0.120606
