%chk=/home/boittier/MDCM/nms_sampling/butadiene_geom.xyz.dir/butadiene_423.chk
%nproc=8
%mem=16000MB
#p B2PLYPD3/Def2QZVP 

butadiene

0 1
C  -3.839378   0.216232   0.023028
C  -2.704153  -0.485197   0.035504
C  -1.381218   0.080738  -0.002971
C  -0.277478  -0.668073   0.043832
H  -4.788360  -0.274179   0.045400
H  -3.841091   1.286459   0.061064
H  -2.775340  -1.547082  -0.039274
H  -1.362186   1.156736  -0.078251
H  -0.342449  -1.736862   0.113035
H   0.710898  -0.214151   0.016516

