%chk=/home/boittier/MDCM/nms_sampling/butadiene_geom.xyz.dir/butadiene_2276.chk
%nproc=8
%mem=16000MB
#p B2PLYPD3/Def2QZVP 

butadiene

0 1
C  -3.853190   0.241938  -0.000191
C  -2.768115  -0.528996   0.085710
C  -1.361118   0.041493   0.034303
C  -0.219060  -0.618306  -0.011400
H  -4.809104  -0.272303  -0.095876
H  -3.741916   1.415726  -0.319514
H  -2.969667  -1.631363   0.288740
H  -1.415293   1.073607   0.313895
H  -0.204989  -1.704293  -0.121253
H   0.762117  -0.154167   0.058679

