%chk=/home/boittier/MDCM/nms_sampling/butadiene_geom.xyz.dir/butadiene_1666.chk
%nproc=8
%mem=16000MB
#p B2PLYPD3/Def2QZVP 

butadiene

0 1
C  -3.825939   0.232770   0.056060
C  -2.704990  -0.515836  -0.008349
C  -1.393798   0.056809  -0.023783
C  -0.273049  -0.638151   0.051510
H  -4.793392  -0.182951   0.048213
H  -3.802131   1.338408   0.043654
H  -2.896051  -1.645797   0.103299
H  -1.365048   1.131615  -0.053345
H  -0.303931  -1.731043   0.133238
H   0.712826  -0.173854   0.161138
