%chk=/home/boittier/MDCM/nms_sampling/butadiene_geom.xyz.dir/butadiene_675.chk
%nproc=8
%mem=16000MB
#p B2PLYPD3/Def2QZVP 

butadiene

0 1
C  -3.831898   0.211947   0.032075
C  -2.708379  -0.483927   0.017817
C  -1.386923   0.085946  -0.011011
C  -0.282373  -0.663570   0.046579
H  -4.761772  -0.282400   0.114243
H  -3.820893   1.301122   0.026120
H  -2.806186  -1.592133   0.045133
H  -1.317382   1.167750  -0.071529
H  -0.325969  -1.747376   0.052859
H   0.728499  -0.247918   0.143894
