%chk=/home/boittier/MDCM/nms_sampling/butadiene_geom.xyz.dir/butadiene_1339.chk
%nproc=8
%mem=16000MB
#p B2PLYPD3/Def2QZVP 

butadiene

0 1
C  -3.857026   0.201394   0.052031
C  -2.736219  -0.483537   0.001834
C  -1.364862   0.112912  -0.051397
C  -0.258519  -0.678381   0.083211
H  -4.820779  -0.300448   0.074239
H  -3.806868   1.279962   0.110750
H  -2.749901  -1.546318   0.015854
H  -1.290073   1.191215  -0.044823
H  -0.287692  -1.807141   0.074009
H   0.731244  -0.223221   0.068139

