%chk=/home/boittier/MDCM/nms_sampling/butadiene_geom.xyz.dir/butadiene_2609.chk
%nproc=8
%mem=16000MB
#p B2PLYPD3/Def2QZVP 

butadiene

0 1
C  -3.837630   0.243330  -0.062324
C  -2.737314  -0.490550   0.101903
C  -1.394868   0.005205   0.101403
C  -0.247055  -0.616372  -0.041402
H  -4.772502  -0.232306  -0.032645
H  -3.763679   1.292786  -0.002427
H  -2.896516  -1.561520   0.158669
H  -1.377610   1.049299   0.138129
H  -0.100463  -1.713669   0.146600
H   0.712672  -0.163285  -0.240813

