%chk=/home/boittier/MDCM/nms_sampling/butadiene_geom.xyz.dir/butadiene_2091.chk
%nproc=8
%mem=16000MB
#p B2PLYPD3/Def2QZVP 

butadiene

0 1
C  -3.835493   0.213064   0.083664
C  -2.695586  -0.512380  -0.040822
C  -1.364908   0.101552  -0.031566
C  -0.296470  -0.656672   0.102875
H  -4.759711  -0.260674   0.075323
H  -3.950277   1.337284   0.104980
H  -2.815664  -1.557970  -0.129938
H  -1.244521   1.143181  -0.269189
H  -0.471679  -1.710452   0.175852
H   0.730198  -0.312683  -0.066711
