%chk=/home/boittier/MDCM/nms_sampling/butadiene_geom.xyz.dir/butadiene_78.chk
%nproc=8
%mem=16000MB
#p B2PLYPD3/Def2QZVP 

butadiene

0 1
C  -3.837165   0.233354   0.012191
C  -2.715839  -0.510041   0.036964
C  -1.384879   0.059873   0.032890
C  -0.267705  -0.644829   0.031596
H  -4.792558  -0.230893   0.009406
H  -3.802831   1.308657  -0.000557
H  -2.807348  -1.602319   0.061850
H  -1.309522   1.131875  -0.075998
H  -0.321856  -1.724269   0.042370
H   0.686441  -0.167972  -0.077553
