%chk=/home/boittier/MDCM/nms_sampling/butadiene_geom.xyz.dir/butadiene_291.chk
%nproc=8
%mem=16000MB
#p B2PLYPD3/Def2QZVP 

butadiene

0 1
C  -3.838355   0.210380   0.027610
C  -2.707731  -0.487051   0.029682
C  -1.384035   0.083982  -0.010338
C  -0.270754  -0.660730   0.047909
H  -4.836212  -0.235692   0.099900
H  -3.819412   1.275634  -0.016289
H  -2.797136  -1.578847   0.020553
H  -1.334741   1.171878  -0.019597
H  -0.363233  -1.763500   0.033183
H   0.733329  -0.232090   0.081484

