%chk=/home/boittier/MDCM/nms_sampling/butadiene_geom.xyz.dir/butadiene_1251.chk
%nproc=8
%mem=16000MB
#p B2PLYPD3/Def2QZVP 

butadiene

0 1
C  -3.822747   0.239160  -0.025990
C  -2.720570  -0.534037   0.076576
C  -1.395347   0.053367   0.080229
C  -0.256392  -0.630330  -0.011639
H  -4.864583  -0.100071  -0.057528
H  -3.769786   1.307003  -0.015677
H  -2.811218  -1.594580   0.128148
H  -1.431751   1.135942  -0.061192
H  -0.308672  -1.724029   0.016582
H   0.710958  -0.202897  -0.106455

