%chk=/home/boittier/MDCM/nms_sampling/butadiene_geom.xyz.dir/butadiene_1797.chk
%nproc=8
%mem=16000MB
#p B2PLYPD3/Def2QZVP 

butadiene

0 1
C  -3.840210   0.230860   0.060228
C  -2.739070  -0.503726  -0.026847
C  -1.387306   0.039460  -0.017081
C  -0.242650  -0.627014   0.078843
H  -4.842136  -0.231705   0.183690
H  -3.814636   1.316517  -0.021095
H  -2.827061  -1.588262   0.061167
H  -1.286125   1.146273  -0.128077
H  -0.258629  -1.721604   0.008721
H   0.741351  -0.214575   0.084284

