%chk=/home/boittier/MDCM/nms_sampling/butadiene_geom.xyz.dir/butadiene_1498.chk
%nproc=8
%mem=16000MB
#p B2PLYPD3/Def2QZVP 

butadiene

0 1
C  -3.843350   0.232635   0.066068
C  -2.724391  -0.501666  -0.034549
C  -1.396333   0.049213  -0.021809
C  -0.241583  -0.636760   0.066136
H  -4.837407  -0.242020   0.153148
H  -3.830085   1.327424  -0.004353
H  -2.787466  -1.611423   0.106113
H  -1.334791   1.149070  -0.067044
H  -0.289095  -1.726604   0.113899
H   0.745485  -0.233619   0.132475

