%chk=/home/boittier/MDCM/nms_sampling/butadiene_geom.xyz.dir/butadiene_1228.chk
%nproc=8
%mem=16000MB
#p B2PLYPD3/Def2QZVP 

butadiene

0 1
C  -3.836358   0.235444   0.059416
C  -2.729212  -0.515388  -0.018959
C  -1.393621   0.061060  -0.026025
C  -0.252099  -0.634031   0.059930
H  -4.822506  -0.180843   0.096962
H  -3.807420   1.296908   0.039081
H  -2.753207  -1.630948   0.079043
H  -1.351832   1.129732  -0.043784
H  -0.286894  -1.739456   0.158010
H   0.752794  -0.257169   0.117228
