%chk=/home/boittier/MDCM/nms_sampling/butadiene_geom.xyz.dir/butadiene_1767.chk
%nproc=8
%mem=16000MB
#p B2PLYPD3/Def2QZVP 

butadiene

0 1
C  -3.831112   0.246503   0.019744
C  -2.710737  -0.526247   0.043724
C  -1.394177   0.053578  -0.003948
C  -0.261548  -0.646130   0.025674
H  -4.834321  -0.202148   0.097167
H  -3.822594   1.316068  -0.052417
H  -2.864459  -1.583682   0.022747
H  -1.401722   1.138061   0.030588
H  -0.225025  -1.687988   0.075803
H   0.704579  -0.151038   0.153116

