%chk=/home/boittier/MDCM/nms_sampling/butadiene_geom.xyz.dir/butadiene_1719.chk
%nproc=8
%mem=16000MB
#p B2PLYPD3/Def2QZVP 

butadiene

0 1
C  -3.823339   0.241576  -0.010614
C  -2.719195  -0.538557   0.051717
C  -1.390849   0.069142   0.063908
C  -0.275074  -0.642367  -0.014604
H  -4.868932  -0.136104   0.064199
H  -3.748695   1.309419  -0.134583
H  -2.787876  -1.642162   0.216910
H  -1.336611   1.142729   0.083258
H  -0.248620  -1.677931   0.032362
H   0.682067  -0.187820   0.036080
