%chk=/home/boittier/MDCM/nms_sampling/butadiene_geom.xyz.dir/butadiene_1405.chk
%nproc=8
%mem=16000MB
#p B2PLYPD3/Def2QZVP 

butadiene

0 1
C  -3.853410   0.229715  -0.027424
C  -2.736516  -0.514752   0.082512
C  -1.382169   0.048846   0.052074
C  -0.233422  -0.641311  -0.003372
H  -4.879781  -0.156245  -0.091171
H  -3.719436   1.336604   0.063671
H  -2.816150  -1.585682   0.172981
H  -1.330862   1.106755   0.018698
H  -0.243193  -1.705128   0.018698
H   0.642078  -0.100224  -0.077385
