%chk=/home/boittier/MDCM/nms_sampling/butadiene_geom.xyz.dir/butadiene_192.chk
%nproc=8
%mem=16000MB
#p B2PLYPD3/Def2QZVP 

butadiene

0 1
C  -3.838334   0.229333   0.003372
C  -2.729063  -0.506400   0.056739
C  -1.390529   0.055501   0.012608
C  -0.247876  -0.640316   0.025967
H  -4.822491  -0.234448   0.038359
H  -3.781947   1.315095   0.010645
H  -2.845337  -1.570344   0.035405
H  -1.339511   1.138805   0.000967
H  -0.272148  -1.727814   0.048007
H   0.723908  -0.195917   0.019909

