%chk=/home/boittier/MDCM/nms_sampling/butadiene_geom.xyz.dir/butadiene_2770.chk
%nproc=8
%mem=16000MB
#p B2PLYPD3/Def2QZVP 

butadiene

0 1
C  -3.878231   0.205514  -0.032976
C  -2.736020  -0.482483   0.064502
C  -1.361659   0.053537   0.059911
C  -0.229236  -0.648019  -0.000306
H  -4.912547  -0.149957   0.307876
H  -3.730456   1.295833  -0.206431
H  -2.815334  -1.586944   0.129083
H  -1.306116   1.153921   0.127558
H  -0.261727  -1.802378  -0.092243
H   0.649558  -0.076056   0.035117

