%chk=/home/boittier/MDCM/nms_sampling/butadiene_geom.xyz.dir/butadiene_2507.chk
%nproc=8
%mem=16000MB
#p B2PLYPD3/Def2QZVP 

butadiene

0 1
C  -3.828661   0.263983  -0.004592
C  -2.728808  -0.521345   0.039342
C  -1.405104   0.002613   0.065504
C  -0.244434  -0.617990   0.018982
H  -4.743739  -0.197148   0.164460
H  -3.855968   1.351973  -0.210524
H  -2.909561  -1.623812   0.195660
H  -1.465632   1.144090  -0.008785
H  -0.067160  -1.718972  -0.177290
H   0.728382  -0.131558  -0.020897
