%chk=/home/boittier/MDCM/nms_sampling/butadiene_geom.xyz.dir/butadiene_206.chk
%nproc=8
%mem=16000MB
#p B2PLYPD3/Def2QZVP 

butadiene

0 1
C  -3.843829   0.224942   0.001031
C  -2.720756  -0.494099   0.041595
C  -1.383407   0.079730   0.026912
C  -0.262184  -0.663386   0.020815
H  -4.773888  -0.298348   0.111063
H  -3.861102   1.293782  -0.048892
H  -2.745691  -1.566934   0.122418
H  -1.296454   1.167385   0.052899
H  -0.305147  -1.741576   0.030564
H   0.693696  -0.219197   0.010940

