%chk=/home/boittier/MDCM/nms_sampling/butadiene_geom.xyz.dir/butadiene_1736.chk
%nproc=8
%mem=16000MB
#p B2PLYPD3/Def2QZVP 

butadiene

0 1
C  -3.817736   0.238842   0.000010
C  -2.724484  -0.526218   0.039785
C  -1.397195   0.055176   0.045928
C  -0.272760  -0.647456   0.010480
H  -4.804587  -0.183031   0.128254
H  -3.737937   1.357323  -0.125902
H  -2.773710  -1.584850   0.174592
H  -1.290961   1.107688   0.022850
H  -0.263808  -1.692668  -0.040793
H   0.612471  -0.080578   0.059390
