%chk=/home/boittier/MDCM/nms_sampling/butadiene_geom.xyz.dir/butadiene_704.chk
%nproc=8
%mem=16000MB
#p B2PLYPD3/Def2QZVP 

butadiene

0 1
C  -3.842379   0.224228   0.002778
C  -2.726459  -0.498644   0.044473
C  -1.379564   0.051456   0.040418
C  -0.257536  -0.648580   0.020984
H  -4.826396  -0.217841   0.044773
H  -3.785173   1.331375  -0.072744
H  -2.805385  -1.565979   0.136554
H  -1.329537   1.135242   0.001301
H  -0.269340  -1.729383  -0.023094
H   0.670577  -0.118683  -0.037645

