%chk=/home/boittier/MDCM/nms_sampling/butadiene_geom.xyz.dir/butadiene_2737.chk
%nproc=8
%mem=16000MB
#p B2PLYPD3/Def2QZVP 

butadiene

0 1
C  -3.838208   0.239708   0.067780
C  -2.730493  -0.508830  -0.040778
C  -1.384694   0.061981  -0.090615
C  -0.267472  -0.660189   0.096674
H  -4.813010  -0.300920   0.232429
H  -3.726507   1.301417   0.245603
H  -2.834687  -1.561386   0.112686
H  -1.296163   1.158306  -0.074959
H  -0.141564  -1.776354   0.111900
H   0.646338  -0.027856   0.329932

