%chk=/home/boittier/MDCM/nms_sampling/butadiene_geom.xyz.dir/butadiene_2160.chk
%nproc=8
%mem=16000MB
#p B2PLYPD3/Def2QZVP 

butadiene

0 1
C  -3.810778   0.261952   0.075791
C  -2.726462  -0.552265  -0.014687
C  -1.403661   0.059900  -0.050109
C  -0.253439  -0.638063   0.096180
H  -4.820830  -0.188759  -0.029933
H  -3.688667   1.313237   0.123148
H  -2.813254  -1.589764   0.012404
H  -1.552967   1.113600  -0.198757
H  -0.325769  -1.746887   0.030493
H   0.720705  -0.122340   0.073155

