%chk=/home/boittier/MDCM/nms_sampling/butadiene_geom.xyz.dir/butadiene_2315.chk
%nproc=8
%mem=16000MB
#p B2PLYPD3/Def2QZVP 

butadiene

0 1
C  -3.805020   0.243295  -0.044523
C  -2.731343  -0.532521   0.110861
C  -1.396116   0.045066   0.054996
C  -0.289214  -0.640574  -0.005523
H  -4.773333  -0.217207  -0.079753
H  -3.575250   1.395216  -0.143675
H  -2.853007  -1.628072   0.386277
H  -1.347217   1.183976   0.213386
H  -0.170134  -1.700759  -0.314132
H   0.580612  -0.051109  -0.025700

