%chk=/home/boittier/MDCM/nms_sampling/butadiene_geom.xyz.dir/butadiene_955.chk
%nproc=8
%mem=16000MB
#p B2PLYPD3/Def2QZVP 

butadiene

0 1
C  -3.838043   0.228058   0.032344
C  -2.721673  -0.498135   0.019214
C  -1.383208   0.063844   0.007425
C  -0.256870  -0.653752   0.044292
H  -4.808117  -0.282216   0.002664
H  -3.837429   1.305672   0.019577
H  -2.844075  -1.573972   0.031919
H  -1.323417   1.153857  -0.040799
H  -0.296855  -1.747213   0.131032
H   0.689616  -0.151902  -0.062956

