%chk=/home/boittier/MDCM/nms_sampling/butadiene_geom.xyz.dir/butadiene_1629.chk
%nproc=8
%mem=16000MB
#p B2PLYPD3/Def2QZVP 

butadiene

0 1
C  -3.839977   0.213820  -0.017855
C  -2.708230  -0.490671   0.085519
C  -1.390133   0.102223   0.031661
C  -0.271586  -0.669790   0.015318
H  -4.749658  -0.306521   0.056404
H  -3.836402   1.305978  -0.120076
H  -2.710836  -1.562522   0.105013
H  -1.327141   1.161419   0.071785
H  -0.416055  -1.744397  -0.141106
H   0.748955  -0.306666   0.018979
