%chk=/home/boittier/MDCM/nms_sampling/butadiene_geom.xyz.dir/butadiene_2559.chk
%nproc=8
%mem=16000MB
#p B2PLYPD3/Def2QZVP 

butadiene

0 1
C  -3.819146   0.203420  -0.039623
C  -2.740019  -0.501568   0.091919
C  -1.388241   0.101076   0.120566
C  -0.264160  -0.643825  -0.055660
H  -4.832501  -0.210923   0.053370
H  -3.764756   1.302393  -0.291446
H  -2.905666  -1.620227   0.205515
H  -1.307799   1.148445   0.032418
H  -0.264009  -1.813836  -0.080260
H   0.798007  -0.304531   0.055288

