%chk=/home/boittier/MDCM/nms_sampling/butadiene_geom.xyz.dir/butadiene_2092.chk
%nproc=8
%mem=16000MB
#p B2PLYPD3/Def2QZVP 

butadiene

0 1
C  -3.866056   0.255841  -0.032263
C  -2.712375  -0.528109   0.093895
C  -1.386379   0.021084   0.035670
C  -0.224422  -0.623761  -0.008501
H  -4.883116  -0.085556  -0.165884
H  -3.845405   1.290732   0.209411
H  -2.889371  -1.653530   0.137451
H  -1.495828   1.086805   0.014237
H  -0.208160  -1.652612   0.133677
H   0.769215  -0.153794  -0.056715
