%chk=/home/boittier/MDCM/nms_sampling/butadiene_geom.xyz.dir/butadiene_1726.chk
%nproc=8
%mem=16000MB
#p B2PLYPD3/Def2QZVP 

butadiene

0 1
C  -3.815361   0.239033  -0.004647
C  -2.722541  -0.513072   0.075402
C  -1.403882   0.061654   0.032679
C  -0.264786  -0.644008  -0.000252
H  -4.781956  -0.200639  -0.095943
H  -3.788328   1.293183   0.004002
H  -2.817178  -1.624362   0.049513
H  -1.402819   1.122918   0.043939
H  -0.242345  -1.714901   0.136514
H   0.703404  -0.218058  -0.041482

