%chk=/home/boittier/MDCM/nms_sampling/butadiene_geom.xyz.dir/butadiene_403.chk
%nproc=8
%mem=16000MB
#p B2PLYPD3/Def2QZVP 

butadiene

0 1
C  -3.835362   0.222133   0.004073
C  -2.719372  -0.507165   0.046510
C  -1.381980   0.067392   0.031655
C  -0.266685  -0.646143   0.023375
H  -4.832373  -0.210121   0.056372
H  -3.754859   1.341471  -0.076778
H  -2.799115  -1.591062   0.137824
H  -1.369395   1.131452   0.012746
H  -0.332221  -1.735209  -0.045191
H   0.712102  -0.192593   0.005776

