%chk=/home/boittier/MDCM/nms_sampling/butadiene_geom.xyz.dir/butadiene_56.chk
%nproc=8
%mem=16000MB
#p B2PLYPD3/Def2QZVP 

butadiene

0 1
C  -3.842828   0.209188   0.037054
C  -2.710656  -0.491923   0.017901
C  -1.385543   0.093763   0.011505
C  -0.268963  -0.670944   0.041009
H  -4.836458  -0.223081   0.001365
H  -3.802263   1.296151   0.002569
H  -2.755833  -1.575989   0.018945
H  -1.324275   1.181446  -0.109359
H  -0.328721  -1.735917   0.105495
H   0.721003  -0.222626   0.003833
