%chk=/home/boittier/MDCM/nms_sampling/butadiene_geom.xyz.dir/butadiene_2850.chk
%nproc=8
%mem=16000MB
#p B2PLYPD3/Def2QZVP 

butadiene

0 1
C  -3.787991   0.245813  -0.069704
C  -2.717810  -0.541152   0.097620
C  -1.433928   0.043802   0.092099
C  -0.286085  -0.637910  -0.023871
H  -4.799224  -0.113711   0.314327
H  -3.576257   1.371422  -0.231342
H  -2.865132  -1.625874   0.187137
H  -1.361083   1.191080   0.185790
H  -0.118622  -1.722345  -0.167114
H   0.632753  -0.060645  -0.029005

