%chk=/home/boittier/MDCM/nms_sampling/butadiene_geom.xyz.dir/butadiene_678.chk
%nproc=8
%mem=16000MB
#p B2PLYPD3/Def2QZVP 

butadiene

0 1
C  -3.831148   0.236916   0.042790
C  -2.721761  -0.511665   0.017011
C  -1.397073   0.059467  -0.007132
C  -0.260354  -0.646510   0.046911
H  -4.776322  -0.247082   0.039253
H  -3.784725   1.326698  -0.038557
H  -2.769398  -1.592657   0.039610
H  -1.337427   1.143097  -0.048736
H  -0.304263  -1.715936   0.061269
H   0.694006  -0.188987   0.083981
