%chk=/home/boittier/MDCM/nms_sampling/butadiene_geom.xyz.dir/butadiene_486.chk
%nproc=8
%mem=16000MB
#p B2PLYPD3/Def2QZVP 

butadiene

0 1
C  -3.850917   0.222328   0.003564
C  -2.724173  -0.498584   0.048987
C  -1.381568   0.063852   0.031592
C  -0.254774  -0.649481   0.027785
H  -4.844218  -0.246507   0.042044
H  -3.762089   1.301395  -0.030246
H  -2.792576  -1.556795   0.034721
H  -1.309246   1.149475  -0.016091
H  -0.289338  -1.718062   0.043776
H   0.723969  -0.197718  -0.087015
