%chk=/home/boittier/MDCM/nms_sampling/butadiene_geom.xyz.dir/butadiene_1618.chk
%nproc=8
%mem=16000MB
#p B2PLYPD3/Def2QZVP 

butadiene

0 1
C  -3.857222   0.195746  -0.015718
C  -2.712998  -0.474321   0.062778
C  -1.387259   0.097946   0.055004
C  -0.260670  -0.676444  -0.008744
H  -4.840051  -0.257602   0.025126
H  -3.816015   1.313634  -0.060079
H  -2.718691  -1.525306   0.135107
H  -1.295869   1.210203   0.092876
H  -0.292712  -1.763882   0.105177
H   0.765932  -0.270550  -0.054915

