%chk=/home/boittier/MDCM/nms_sampling/butadiene_geom.xyz.dir/butadiene_1762.chk
%nproc=8
%mem=16000MB
#p B2PLYPD3/Def2QZVP 

butadiene

0 1
C  -3.860927   0.211654   0.005481
C  -2.716688  -0.472543   0.038762
C  -1.362622   0.079851   0.036696
C  -0.263528  -0.676313   0.009816
H  -4.825791  -0.289730   0.129885
H  -3.853551   1.274084  -0.100448
H  -2.778628  -1.570255   0.132433
H  -1.300426   1.139997  -0.008524
H  -0.274121  -1.715364  -0.000885
H   0.646384  -0.155384   0.122076

