%chk=/home/boittier/MDCM/nms_sampling/butadiene_geom.xyz.dir/butadiene_52.chk
%nproc=8
%mem=16000MB
#p B2PLYPD3/Def2QZVP 

butadiene

0 1
C  -3.845560   0.221509  -0.009577
C  -2.718762  -0.502882   0.072377
C  -1.374076   0.084738   0.032712
C  -0.266516  -0.660654   0.010600
H  -4.800050  -0.253740   0.008916
H  -3.852830   1.289134  -0.022287
H  -2.773130  -1.560805   0.053783
H  -1.314411   1.157288   0.008983
H  -0.347848  -1.746375   0.024269
H   0.726681  -0.206106  -0.006485

