%chk=/home/boittier/MDCM/nms_sampling/butadiene_geom.xyz.dir/butadiene_870.chk
%nproc=8
%mem=16000MB
#p B2PLYPD3/Def2QZVP 

butadiene

0 1
C  -3.845800   0.239069   0.016500
C  -2.726606  -0.510448   0.040752
C  -1.385665   0.058962   0.022401
C  -0.258141  -0.648823   0.022252
H  -4.799481  -0.258749   0.063323
H  -3.801548   1.300950  -0.106206
H  -2.778740  -1.581414   0.072814
H  -1.290878   1.135825   0.021110
H  -0.229719  -1.729912   0.032523
H   0.687767  -0.148403   0.043538

