%chk=/home/boittier/MDCM/nms_sampling/butadiene_geom.xyz.dir/butadiene_96.chk
%nproc=8
%mem=16000MB
#p B2PLYPD3/Def2QZVP 

butadiene

0 1
C  -3.845884   0.239996  -0.000068
C  -2.729200  -0.512192   0.064950
C  -1.386474   0.051712   0.029575
C  -0.252837  -0.646140   0.024267
H  -4.831904  -0.251048  -0.006641
H  -3.775213   1.322560  -0.048356
H  -2.778301  -1.601572   0.038980
H  -1.305446   1.158341  -0.004189
H  -0.222432  -1.714334  -0.006389
H   0.682105  -0.135867  -0.065345
