%chk=/home/boittier/MDCM/nms_sampling/butadiene_geom.xyz.dir/butadiene_1774.chk
%nproc=8
%mem=16000MB
#p B2PLYPD3/Def2QZVP 

butadiene

0 1
C  -3.858408   0.216342  -0.012182
C  -2.724902  -0.490904   0.069557
C  -1.382446   0.073215   0.043587
C  -0.250544  -0.654335  -0.014856
H  -4.816405  -0.235591  -0.008606
H  -3.756641   1.277387  -0.103286
H  -2.802983  -1.567680   0.244180
H  -1.308594   1.172136   0.130095
H  -0.244755  -1.759602  -0.005343
H   0.708474  -0.218848   0.103734

