%chk=/home/boittier/MDCM/nms_sampling/butadiene_geom.xyz.dir/butadiene_1886.chk
%nproc=8
%mem=16000MB
#p B2PLYPD3/Def2QZVP 

butadiene

0 1
C  -3.829217   0.239398  -0.003657
C  -2.718382  -0.512456   0.055542
C  -1.399245   0.049216   0.020051
C  -0.273444  -0.639711   0.010769
H  -4.749281  -0.230727   0.056144
H  -3.711447   1.311501  -0.032062
H  -2.767744  -1.601321   0.207109
H  -1.294735   1.133941   0.064972
H  -0.299209  -1.714497  -0.041857
H   0.664237  -0.156589   0.136015
