%chk=/home/boittier/MDCM/nms_sampling/butadiene_geom.xyz.dir/butadiene_407.chk
%nproc=8
%mem=16000MB
#p B2PLYPD3/Def2QZVP 

butadiene

0 1
C  -3.845763   0.216230   0.034741
C  -2.723342  -0.487082   0.010343
C  -1.374956   0.070825  -0.013177
C  -0.258077  -0.661448   0.050891
H  -4.787232  -0.260048   0.119395
H  -3.848099   1.303503   0.033107
H  -2.815570  -1.571789   0.018599
H  -1.308278   1.148105  -0.017683
H  -0.313415  -1.723061   0.136441
H   0.677584  -0.168885   0.050269
