%chk=/home/boittier/MDCM/nms_sampling/butadiene_geom.xyz.dir/butadiene_1122.chk
%nproc=8
%mem=16000MB
#p B2PLYPD3/Def2QZVP 

butadiene

0 1
C  -3.842474   0.243374   0.053992
C  -2.729810  -0.512825   0.008355
C  -1.386116   0.053277  -0.025578
C  -0.250058  -0.646220   0.058512
H  -4.776329  -0.259850   0.038921
H  -3.828158   1.307943   0.033132
H  -2.849483  -1.585196  -0.025262
H  -1.357862   1.158633  -0.112757
H  -0.160833  -1.702083   0.111332
H   0.669978  -0.191210   0.122792
