%chk=/home/boittier/MDCM/nms_sampling/butadiene_geom.xyz.dir/butadiene_2511.chk
%nproc=8
%mem=16000MB
#p B2PLYPD3/Def2QZVP 

butadiene

0 1
C  -3.819883   0.177686  -0.046481
C  -2.680747  -0.443904   0.087714
C  -1.390700   0.091792   0.109814
C  -0.317314  -0.685081  -0.023515
H  -4.892692  -0.227495  -0.153458
H  -3.899601   1.291430   0.007671
H  -2.615933  -1.538489   0.243173
H  -1.189101   1.176073   0.005537
H  -0.442056  -1.740631   0.005022
H   0.711487  -0.229817  -0.290393
