%chk=/home/boittier/MDCM/nms_sampling/butadiene_geom.xyz.dir/butadiene_2535.chk
%nproc=8
%mem=16000MB
#p B2PLYPD3/Def2QZVP 

butadiene

0 1
C  -3.838602   0.218417   0.058581
C  -2.742239  -0.512357  -0.037925
C  -1.407779   0.030296  -0.046957
C  -0.230484  -0.629452   0.089264
H  -4.930238  -0.072979   0.299353
H  -3.645981   1.419431   0.089907
H  -2.855326  -1.569576   0.061677
H  -1.337379   1.102810  -0.112925
H  -0.102514  -1.697929   0.048409
H   0.703207  -0.096923   0.200425

