%chk=/home/boittier/MDCM/nms_sampling/butadiene_geom.xyz.dir/butadiene_596.chk
%nproc=8
%mem=16000MB
#p B2PLYPD3/Def2QZVP 

butadiene

0 1
C  -3.836568   0.212216   0.001909
C  -2.703891  -0.484418   0.055702
C  -1.389411   0.078304   0.020559
C  -0.281605  -0.665880   0.012041
H  -4.811430  -0.254287   0.041918
H  -3.823690   1.298549  -0.066194
H  -2.739083  -1.567257   0.129337
H  -1.274712   1.187529   0.090246
H  -0.334730  -1.741628   0.031820
H   0.703109  -0.205460   0.059129

