%chk=/home/boittier/MDCM/nms_sampling/butadiene_geom.xyz.dir/butadiene_945.chk
%nproc=8
%mem=16000MB
#p B2PLYPD3/Def2QZVP 

butadiene

0 1
C  -3.854542   0.206099   0.001160
C  -2.718622  -0.482240   0.051710
C  -1.374099   0.079826   0.027521
C  -0.257302  -0.664647   0.017900
H  -4.831635  -0.253450   0.018518
H  -3.821450   1.305730  -0.055478
H  -2.785553  -1.549332   0.179991
H  -1.293429   1.171960   0.058697
H  -0.335696  -1.759906  -0.031109
H   0.697858  -0.185645   0.019413

