%chk=/home/boittier/MDCM/nms_sampling/butadiene_geom.xyz.dir/butadiene_381.chk
%nproc=8
%mem=16000MB
#p B2PLYPD3/Def2QZVP 

butadiene

0 1
C  -3.840705   0.219025   0.040166
C  -2.711501  -0.482807   0.017970
C  -1.388277   0.083896  -0.002922
C  -0.267810  -0.668823   0.043218
H  -4.787120  -0.296668   0.004168
H  -3.833044   1.288693   0.052227
H  -2.741033  -1.588566  -0.002993
H  -1.347762   1.161444  -0.127806
H  -0.327852  -1.759263   0.130573
H   0.717086  -0.216960   0.071189

