%chk=/home/boittier/MDCM/nms_sampling/butadiene_geom.xyz.dir/butadiene_2435.chk
%nproc=8
%mem=16000MB
#p B2PLYPD3/Def2QZVP 

butadiene

0 1
C  -3.868972   0.187920   0.041907
C  -2.710518  -0.481792   0.029585
C  -1.370674   0.166576   0.000904
C  -0.278552  -0.713867   0.027596
H  -4.753323  -0.316117  -0.084836
H  -3.756439   1.299118   0.109567
H  -2.656370  -1.586587  -0.084374
H  -1.278316   1.230051  -0.210211
H  -0.326540  -1.754180   0.233851
H   0.692907  -0.330590   0.114705

