%chk=/home/boittier/MDCM/nms_sampling/butadiene_geom.xyz.dir/butadiene_491.chk
%nproc=8
%mem=16000MB
#p B2PLYPD3/Def2QZVP 

butadiene

0 1
C  -3.840666   0.224330   0.037056
C  -2.728366  -0.502803   0.019417
C  -1.385305   0.066823  -0.007884
C  -0.253687  -0.647430   0.053154
H  -4.821425  -0.231964   0.006591
H  -3.807968   1.295075   0.043322
H  -2.826000  -1.566024   0.008259
H  -1.335474   1.138227  -0.053406
H  -0.281448  -1.720794   0.116261
H   0.758204  -0.216377  -0.024940
