%chk=/home/boittier/MDCM/nms_sampling/butadiene_geom.xyz.dir/butadiene_117.chk
%nproc=8
%mem=16000MB
#p B2PLYPD3/Def2QZVP 

butadiene

0 1
C  -3.832160   0.232867  -0.007522
C  -2.727555  -0.518355   0.065406
C  -1.392338   0.060407   0.023075
C  -0.254893  -0.643560   0.011679
H  -4.832466  -0.195523   0.041274
H  -3.756120   1.339035  -0.038723
H  -2.780314  -1.585211   0.119176
H  -1.383303   1.148808   0.083087
H  -0.287430  -1.725322   0.013433
H   0.716265  -0.180451   0.035645

