%chk=/home/boittier/MDCM/nms_sampling/butadiene_geom.xyz.dir/butadiene_623.chk
%nproc=8
%mem=16000MB
#p B2PLYPD3/Def2QZVP 

butadiene

0 1
C  -3.834311   0.233831   0.000457
C  -2.719403  -0.520740   0.063163
C  -1.384118   0.070264   0.035178
C  -0.268075  -0.644987   0.008849
H  -4.816187  -0.203675  -0.010869
H  -3.803361   1.295787  -0.031116
H  -2.792592  -1.603921   0.024573
H  -1.334448   1.155771  -0.019076
H  -0.328800  -1.719191   0.084514
H   0.733145  -0.207479  -0.010822
