%chk=/home/boittier/MDCM/nms_sampling/butadiene_geom.xyz.dir/butadiene_2838.chk
%nproc=8
%mem=16000MB
#p B2PLYPD3/Def2QZVP 

butadiene

0 1
C  -3.870547   0.212412   0.063947
C  -2.732093  -0.479131  -0.019028
C  -1.360758   0.091923  -0.032317
C  -0.248781  -0.667301   0.066505
H  -4.813540  -0.282463   0.281546
H  -3.896243   1.279594  -0.166387
H  -2.801056  -1.612432  -0.020320
H  -1.324553   1.163020   0.049703
H  -0.172560  -1.793373   0.102765
H   0.726997  -0.241692   0.157120

