%chk=/home/boittier/MDCM/nms_sampling/butadiene_geom.xyz.dir/butadiene_1778.chk
%nproc=8
%mem=16000MB
#p B2PLYPD3/Def2QZVP 

butadiene

0 1
C  -3.855960   0.209206   0.018763
C  -2.721059  -0.482959   0.005350
C  -1.369649   0.075594   0.008875
C  -0.256718  -0.657183   0.044381
H  -4.811159  -0.267795   0.175279
H  -3.874325   1.315986   0.033561
H  -2.754464  -1.561372   0.150145
H  -1.286986   1.131357  -0.016929
H  -0.399612  -1.736760   0.044091
H   0.748946  -0.221829   0.044737

