%chk=/home/boittier/MDCM/nms_sampling/butadiene_geom.xyz.dir/butadiene_1160.chk
%nproc=8
%mem=16000MB
#p B2PLYPD3/Def2QZVP 

butadiene

0 1
C  -3.845793   0.232238   0.050971
C  -2.718631  -0.501091  -0.003874
C  -1.399375   0.041512  -0.037120
C  -0.256144  -0.643454   0.078124
H  -4.829221  -0.203931   0.100526
H  -3.771069   1.338093   0.045289
H  -2.783511  -1.574615   0.098331
H  -1.275905   1.102379  -0.049462
H  -0.174941  -1.677877  -0.011266
H   0.673761  -0.156108   0.103477

