%chk=/home/boittier/MDCM/nms_sampling/butadiene_geom.xyz.dir/butadiene_934.chk
%nproc=8
%mem=16000MB
#p B2PLYPD3/Def2QZVP 

butadiene

0 1
C  -3.844130   0.216655   0.022167
C  -2.708215  -0.488394   0.031403
C  -1.380851   0.072697   0.006058
C  -0.269623  -0.662153   0.040340
H  -4.806636  -0.256481   0.030038
H  -3.839759   1.288385   0.008329
H  -2.824952  -1.569209   0.039456
H  -1.308162   1.174722  -0.002906
H  -0.313792  -1.717210   0.094974
H   0.704517  -0.195872  -0.037640

