%chk=/home/boittier/MDCM/nms_sampling/butadiene_geom.xyz.dir/butadiene_606.chk
%nproc=8
%mem=16000MB
#p B2PLYPD3/Def2QZVP 

butadiene

0 1
C  -3.837895   0.225508   0.032907
C  -2.723000  -0.497537   0.012817
C  -1.390758   0.057979   0.001937
C  -0.252430  -0.647701   0.038119
H  -4.811735  -0.245591   0.047154
H  -3.813396   1.332643   0.047989
H  -2.839207  -1.585941   0.050495
H  -1.340138   1.131231  -0.046257
H  -0.269800  -1.728076   0.164708
H   0.712192  -0.179548   0.035637

