%chk=/home/boittier/MDCM/nms_sampling/butadiene_geom.xyz.dir/butadiene_578.chk
%nproc=8
%mem=16000MB
#p B2PLYPD3/Def2QZVP 

butadiene

0 1
C  -3.833218   0.230658   0.004574
C  -2.727317  -0.500826   0.054584
C  -1.393377   0.050219   0.041749
C  -0.255352  -0.643317   0.011360
H  -4.795886  -0.231197  -0.049075
H  -3.813940   1.321620  -0.067301
H  -2.813864  -1.570142   0.089114
H  -1.358177   1.135556   0.039998
H  -0.242811  -1.741172   0.081723
H   0.728019  -0.172090  -0.100572

