%chk=/home/boittier/MDCM/nms_sampling/butadiene_geom.xyz.dir/butadiene_712.chk
%nproc=8
%mem=16000MB
#p B2PLYPD3/Def2QZVP 

butadiene

0 1
C  -3.848153   0.218762   0.002397
C  -2.711954  -0.488347   0.047387
C  -1.382283   0.082226   0.020828
C  -0.268107  -0.669389   0.019565
H  -4.801795  -0.284984   0.043250
H  -3.866290   1.286505  -0.023626
H  -2.765781  -1.555757   0.174245
H  -1.282227   1.169965   0.047538
H  -0.286136  -1.728616  -0.010687
H   0.711155  -0.205274   0.056404

