%chk=/home/boittier/MDCM/nms_sampling/butadiene_geom.xyz.dir/butadiene_350.chk
%nproc=8
%mem=16000MB
#p B2PLYPD3/Def2QZVP 

butadiene

0 1
C  -3.842076   0.220455   0.000811
C  -2.709962  -0.494190   0.067755
C  -1.381778   0.077109   0.031386
C  -0.276034  -0.662370   0.007034
H  -4.785976  -0.256226  -0.022157
H  -3.834598   1.305940  -0.050102
H  -2.752285  -1.575148   0.035154
H  -1.290475   1.152012   0.006251
H  -0.328781  -1.755598   0.068617
H   0.689357  -0.171452   0.013984
