%chk=/home/boittier/MDCM/nms_sampling/butadiene_geom.xyz.dir/butadiene_1727.chk
%nproc=8
%mem=16000MB
#p B2PLYPD3/Def2QZVP 

butadiene

0 1
C  -3.845618   0.228988   0.006842
C  -2.738332  -0.514661   0.073088
C  -1.383415   0.067045   0.041947
C  -0.239116  -0.646622   0.001998
H  -4.785246  -0.236901  -0.125369
H  -3.762167   1.312343  -0.067965
H  -2.864617  -1.577037   0.045532
H  -1.331417   1.158171  -0.065296
H  -0.304116  -1.714450   0.029754
H   0.718067  -0.174641   0.018782
