%chk=/home/boittier/MDCM/nms_sampling/butadiene_geom.xyz.dir/butadiene_1597.chk
%nproc=8
%mem=16000MB
#p B2PLYPD3/Def2QZVP 

butadiene

0 1
C  -3.839419   0.208476  -0.023009
C  -2.701543  -0.491621   0.076314
C  -1.376331   0.096159   0.053769
C  -0.282279  -0.664169   0.000369
H  -4.814040  -0.262434   0.040349
H  -3.907198   1.308687  -0.018583
H  -2.738409  -1.563070   0.020634
H  -1.320949   1.208011   0.012972
H  -0.399842  -1.767534   0.085779
H   0.752977  -0.307755  -0.097568
