%chk=/home/boittier/MDCM/nms_sampling/butadiene_geom.xyz.dir/butadiene_1930.chk
%nproc=8
%mem=16000MB
#p B2PLYPD3/Def2QZVP 

butadiene

0 1
C  -3.850787   0.222612  -0.028222
C  -2.703809  -0.484572   0.080775
C  -1.361813   0.090962   0.105116
C  -0.279794  -0.676460  -0.050718
H  -4.746089  -0.365298  -0.052020
H  -4.006019   1.337661  -0.110133
H  -2.703451  -1.585147   0.125813
H  -1.340078   1.171039  -0.025086
H  -0.378674  -1.774328   0.135153
H   0.703243  -0.218027  -0.013465

