%chk=/home/boittier/MDCM/nms_sampling/butadiene_geom.xyz.dir/butadiene_1447.chk
%nproc=8
%mem=16000MB
#p B2PLYPD3/Def2QZVP 

butadiene

0 1
C  -3.820489   0.236881  -0.010380
C  -2.727775  -0.528141   0.058442
C  -1.404208   0.057836   0.041250
C  -0.263491  -0.638450   0.016503
H  -4.852497  -0.143560   0.073605
H  -3.688561   1.345185  -0.125674
H  -2.746860  -1.603200   0.181161
H  -1.345006   1.119250   0.114065
H  -0.235629  -1.705713  -0.075387
H   0.660404  -0.174857  -0.057874
