%chk=/home/boittier/MDCM/nms_sampling/butadiene_geom.xyz.dir/butadiene_1158.chk
%nproc=8
%mem=16000MB
#p B2PLYPD3/Def2QZVP 

butadiene

0 1
C  -3.824125   0.218400   0.045903
C  -2.723597  -0.504115   0.010096
C  -1.384017   0.092838  -0.021021
C  -0.277060  -0.653903   0.067918
H  -4.780227  -0.292463   0.080317
H  -3.790688   1.286556   0.004145
H  -2.787463  -1.581589   0.056034
H  -1.292712   1.198487  -0.118312
H  -0.400282  -1.789271  -0.052614
H   0.744147  -0.254599   0.125168
