%chk=/home/boittier/MDCM/nms_sampling/butadiene_geom.xyz.dir/butadiene_254.chk
%nproc=8
%mem=16000MB
#p B2PLYPD3/Def2QZVP 

butadiene

0 1
C  -3.835113   0.231238   0.005018
C  -2.722790  -0.514672   0.041888
C  -1.394965   0.060405   0.025438
C  -0.266509  -0.643120   0.016749
H  -4.837402  -0.182542   0.085016
H  -3.735228   1.318052  -0.071898
H  -2.744886  -1.600814   0.127986
H  -1.314086   1.137339   0.084259
H  -0.270196  -1.711572   0.056101
H   0.730123  -0.184641   0.016637

