%chk=/home/boittier/MDCM/nms_sampling/butadiene_geom.xyz.dir/butadiene_2702.chk
%nproc=8
%mem=16000MB
#p B2PLYPD3/Def2QZVP 

butadiene

0 1
C  -3.827958   0.202937   0.060546
C  -2.694025  -0.489863  -0.021949
C  -1.393611   0.096480  -0.006778
C  -0.273967  -0.651642   0.083677
H  -4.910215  -0.236706   0.105363
H  -3.826743   1.259036   0.122204
H  -2.812789  -1.568336  -0.162248
H  -1.287361   1.134579  -0.306142
H  -0.508456  -1.744444   0.187266
H   0.794481  -0.339363  -0.080424
