%chk=/home/boittier/MDCM/nms_sampling/butadiene_geom.xyz.dir/butadiene_240.chk
%nproc=8
%mem=16000MB
#p B2PLYPD3/Def2QZVP 

butadiene

0 1
C  -3.827324   0.229789  -0.007025
C  -2.720230  -0.510625   0.060031
C  -1.388781   0.062976   0.036166
C  -0.268687  -0.645921   0.011547
H  -4.789696  -0.218688   0.036292
H  -3.802469   1.322632  -0.025161
H  -2.806469  -1.607507   0.122159
H  -1.318713   1.143355  -0.007602
H  -0.327911  -1.716419  -0.014309
H   0.694453  -0.179491   0.032454
