%chk=/home/boittier/MDCM/nms_sampling/butadiene_geom.xyz.dir/butadiene_612.chk
%nproc=8
%mem=16000MB
#p B2PLYPD3/Def2QZVP 

butadiene

0 1
C  -3.846326   0.218942   0.012154
C  -2.727281  -0.496821   0.044262
C  -1.370719   0.074818   0.041685
C  -0.257921  -0.655913   0.015688
H  -4.811201  -0.264209  -0.021165
H  -3.848432   1.309973  -0.058985
H  -2.802178  -1.602097   0.075798
H  -1.295111   1.167783  -0.051741
H  -0.355038  -1.726290   0.054314
H   0.721849  -0.188614  -0.033371

