%chk=/home/boittier/MDCM/nms_sampling/butadiene_geom.xyz.dir/butadiene_1550.chk
%nproc=8
%mem=16000MB
#p B2PLYPD3/Def2QZVP 

butadiene

0 1
C  -3.834263   0.232497   0.039756
C  -2.731876  -0.524210   0.003642
C  -1.391461   0.077509  -0.030689
C  -0.256101  -0.644296   0.066044
H  -4.791495  -0.237949   0.165973
H  -3.757876   1.313545   0.111126
H  -2.770837  -1.600654   0.009129
H  -1.278775   1.185242  -0.141877
H  -0.340181  -1.726880   0.052565
H   0.705708  -0.239014   0.181143
