%chk=/home/boittier/MDCM/nms_sampling/butadiene_geom.xyz.dir/butadiene_1969.chk
%nproc=8
%mem=16000MB
#p B2PLYPD3/Def2QZVP 

butadiene

0 1
C  -3.808664   0.215403   0.067237
C  -2.703509  -0.477164   0.013323
C  -1.395645   0.094047  -0.061555
C  -0.293435  -0.671601   0.078103
H  -4.686546  -0.351980   0.142335
H  -3.760699   1.250812  -0.135684
H  -2.854453  -1.609704  -0.077913
H  -1.356619   1.214634   0.034780
H  -0.407068  -1.826846   0.009325
H   0.648439  -0.194006   0.200452

