%chk=/home/boittier/MDCM/nms_sampling/butadiene_geom.xyz.dir/butadiene_2060.chk
%nproc=8
%mem=16000MB
#p B2PLYPD3/Def2QZVP 

butadiene

0 1
C  -3.833553   0.260243   0.069662
C  -2.749250  -0.504156  -0.038977
C  -1.389792  -0.003544  -0.016113
C  -0.232501  -0.613751   0.064198
H  -4.717576  -0.287250   0.060644
H  -3.738748   1.303532   0.255395
H  -2.923024  -1.536073  -0.136546
H  -1.470265   1.035944  -0.316797
H  -0.158542  -1.740106   0.409217
H   0.667374  -0.082866   0.033592

