%chk=/home/boittier/MDCM/nms_sampling/butadiene_geom.xyz.dir/butadiene_957.chk
%nproc=8
%mem=16000MB
#p B2PLYPD3/Def2QZVP 

butadiene

0 1
C  -3.838934   0.222644   0.001077
C  -2.713920  -0.502940   0.051191
C  -1.385776   0.059899   0.020236
C  -0.264330  -0.644806   0.021302
H  -4.829666  -0.206031   0.023992
H  -3.788353   1.326627   0.022678
H  -2.823472  -1.593419   0.086430
H  -1.342891   1.158667   0.029460
H  -0.309447  -1.725013   0.076881
H   0.713161  -0.200516  -0.019052

