%chk=/home/boittier/MDCM/nms_sampling/butadiene_geom.xyz.dir/butadiene_2243.chk
%nproc=8
%mem=16000MB
#p B2PLYPD3/Def2QZVP 

butadiene

0 1
C  -3.829300   0.234977  -0.032384
C  -2.709996  -0.548077   0.059916
C  -1.377646   0.096926   0.088821
C  -0.277943  -0.654454  -0.000278
H  -4.937963  -0.133734   0.050429
H  -3.784857   1.296744  -0.208434
H  -2.799157  -1.642411   0.420630
H  -1.380292   1.238418   0.166453
H  -0.294868  -1.711517  -0.244634
H   0.711019  -0.232316  -0.153737

