%chk=/home/boittier/MDCM/nms_sampling/butadiene_geom.xyz.dir/butadiene_246.chk
%nproc=8
%mem=16000MB
#p B2PLYPD3/Def2QZVP 

butadiene

0 1
C  -3.850946   0.222089   0.004778
C  -2.721192  -0.499523   0.055539
C  -1.376385   0.068604   0.021097
C  -0.258019  -0.656843   0.012429
H  -4.848457  -0.208812   0.003662
H  -3.835805   1.308019  -0.052430
H  -2.790981  -1.597454   0.126919
H  -1.317378   1.149420   0.070902
H  -0.258018  -1.705178   0.041146
H   0.710481  -0.175747   0.045924

