%chk=/home/boittier/MDCM/nms_sampling/butadiene_geom.xyz.dir/butadiene_116.chk
%nproc=8
%mem=16000MB
#p B2PLYPD3/Def2QZVP 

butadiene

0 1
C  -3.844354   0.217621  -0.001367
C  -2.714883  -0.483601   0.066265
C  -1.376976   0.069303   0.040775
C  -0.272744  -0.661738   0.001501
H  -4.828591  -0.282344  -0.060314
H  -3.822503   1.306304  -0.030960
H  -2.738072  -1.566811   0.094441
H  -1.287193   1.142759  -0.016375
H  -0.318756  -1.742485   0.050643
H   0.683191  -0.163516   0.015922
