%chk=/home/boittier/MDCM/nms_sampling/butadiene_geom.xyz.dir/butadiene_164.chk
%nproc=8
%mem=16000MB
#p B2PLYPD3/Def2QZVP 

butadiene

0 1
C  -3.857786   0.217349   0.000956
C  -2.718876  -0.495567   0.053801
C  -1.369976   0.083187   0.024387
C  -0.258482  -0.662040   0.018744
H  -4.826065  -0.251334   0.003211
H  -3.886489   1.301759   0.010788
H  -2.755214  -1.569910   0.113619
H  -1.292807   1.156104   0.004201
H  -0.318686  -1.732812   0.030692
H   0.721354  -0.225629   0.010808
