%chk=/home/boittier/MDCM/nms_sampling/butadiene_geom.xyz.dir/butadiene_114.chk
%nproc=8
%mem=16000MB
#p B2PLYPD3/Def2QZVP 

butadiene

0 1
C  -3.831566   0.234283   0.027829
C  -2.719080  -0.509570   0.033589
C  -1.389169   0.070670  -0.006652
C  -0.273176  -0.655705   0.051920
H  -4.805629  -0.250912   0.021146
H  -3.779251   1.312923   0.038691
H  -2.770798  -1.598412  -0.008531
H  -1.340783   1.141845  -0.070403
H  -0.252116  -1.736373   0.054571
H   0.692037  -0.159851   0.000253
