%chk=/home/boittier/MDCM/nms_sampling/butadiene_geom.xyz.dir/butadiene_1449.chk
%nproc=8
%mem=16000MB
#p B2PLYPD3/Def2QZVP 

butadiene

0 1
C  -3.839172   0.225112   0.023633
C  -2.717866  -0.485308   0.015798
C  -1.390208   0.048096  -0.005728
C  -0.248461  -0.647125   0.054362
H  -4.821310  -0.244829   0.216401
H  -3.830516   1.321782   0.015347
H  -2.844922  -1.610604  -0.035662
H  -1.376917   1.133331  -0.052790
H  -0.269921  -1.740067   0.086611
H   0.672712  -0.170157   0.040384

