%chk=/home/boittier/MDCM/nms_sampling/butadiene_geom.xyz.dir/butadiene_1026.chk
%nproc=8
%mem=16000MB
#p B2PLYPD3/Def2QZVP 

butadiene

0 1
C  -3.858697   0.231742   0.021085
C  -2.734121  -0.509726   0.045392
C  -1.369730   0.051358   0.019422
C  -0.241058  -0.647349   0.018581
H  -4.905625  -0.207807  -0.104057
H  -3.755270   1.319019   0.001301
H  -2.785337  -1.557145   0.091333
H  -1.375196   1.133073  -0.015980
H  -0.235374  -1.727445   0.104633
H   0.681007  -0.102915   0.001713

