%chk=/home/boittier/MDCM/nms_sampling/butadiene_geom.xyz.dir/butadiene_2332.chk
%nproc=8
%mem=16000MB
#p B2PLYPD3/Def2QZVP 

butadiene

0 1
C  -3.816286   0.226343  -0.026064
C  -2.703119  -0.511417   0.087233
C  -1.377587   0.106345   0.086317
C  -0.285959  -0.663894  -0.047908
H  -4.826172  -0.289424  -0.200978
H  -3.945472   1.282990  -0.034873
H  -2.774228  -1.659448   0.238906
H  -1.337396   1.201157   0.070273
H  -0.480155  -1.751174   0.138341
H   0.732104  -0.282867  -0.042775
