%chk=/home/boittier/MDCM/nms_sampling/butadiene_geom.xyz.dir/butadiene_388.chk
%nproc=8
%mem=16000MB
#p B2PLYPD3/Def2QZVP 

butadiene

0 1
C  -3.829134   0.233650  -0.008138
C  -2.723552  -0.507062   0.069696
C  -1.392062   0.052710   0.032231
C  -0.264733  -0.641323   0.008673
H  -4.791715  -0.242115   0.035745
H  -3.740782   1.324827  -0.054792
H  -2.825938  -1.586855   0.074486
H  -1.362613   1.128418   0.027001
H  -0.268783  -1.744653   0.006394
H   0.693346  -0.156416   0.032139
