%chk=/home/boittier/MDCM/nms_sampling/butadiene_geom.xyz.dir/butadiene_449.chk
%nproc=8
%mem=16000MB
#p B2PLYPD3/Def2QZVP 

butadiene

0 1
C  -3.853216   0.219137   0.034059
C  -2.725508  -0.499906   0.019341
C  -1.370409   0.076299  -0.006171
C  -0.261356  -0.657646   0.040609
H  -4.816833  -0.250779   0.082121
H  -3.819506   1.303960   0.008487
H  -2.758301  -1.557730   0.045547
H  -1.279219   1.163211  -0.069651
H  -0.320712  -1.731042   0.072696
H   0.705303  -0.190464   0.141267
