%chk=/home/boittier/MDCM/nms_sampling/butadiene_geom.xyz.dir/butadiene_2077.chk
%nproc=8
%mem=16000MB
#p B2PLYPD3/Def2QZVP 

butadiene

0 1
C  -3.852353   0.225099   0.038511
C  -2.726106  -0.465433   0.014137
C  -1.380688   0.057462   0.011759
C  -0.253525  -0.661157   0.029352
H  -4.795188  -0.408157  -0.046178
H  -4.047253   1.318326   0.068767
H  -2.699128  -1.521025  -0.083147
H  -1.282035   1.146197  -0.023779
H  -0.240589  -1.720409   0.394627
H   0.822533  -0.272395  -0.142450
