%chk=/home/boittier/MDCM/nms_sampling/butadiene_geom.xyz.dir/butadiene_588.chk
%nproc=8
%mem=16000MB
#p B2PLYPD3/Def2QZVP 

butadiene

0 1
C  -3.853785   0.215366   0.002684
C  -2.718229  -0.485437   0.058381
C  -1.378388   0.074616   0.032082
C  -0.258435  -0.657985   0.006651
H  -4.783039  -0.275096  -0.067781
H  -3.817010   1.298507   0.006490
H  -2.794223  -1.576061   0.109087
H  -1.334883   1.165347   0.008197
H  -0.331527  -1.754586   0.091152
H   0.748013  -0.218888  -0.002505
