%chk=/home/boittier/MDCM/nms_sampling/butadiene_geom.xyz.dir/butadiene_163.chk
%nproc=8
%mem=16000MB
#p B2PLYPD3/Def2QZVP 

butadiene

0 1
C  -3.835065   0.228709   0.004194
C  -2.716376  -0.499826   0.053758
C  -1.387566   0.061806   0.009465
C  -0.271072  -0.652990   0.028992
H  -4.818036  -0.231368  -0.000985
H  -3.753252   1.297601   0.062116
H  -2.778313  -1.582608   0.045335
H  -1.339436   1.114229   0.010741
H  -0.285557  -1.725604   0.090937
H   0.677636  -0.143252  -0.031066
