%chk=/home/boittier/MDCM/nms_sampling/butadiene_geom.xyz.dir/butadiene_2810.chk
%nproc=8
%mem=16000MB
#p B2PLYPD3/Def2QZVP 

butadiene

0 1
C  -3.820317   0.178521   0.035377
C  -2.696425  -0.460577   0.021469
C  -1.372502   0.102614  -0.065922
C  -0.304541  -0.680565   0.082226
H  -4.804708  -0.255353   0.268135
H  -3.760352   1.308715   0.126148
H  -2.761679  -1.506076  -0.152500
H  -1.357859   1.193896  -0.092772
H  -0.496665  -1.791819   0.065882
H   0.663267  -0.220106   0.220532

