%chk=/home/boittier/MDCM/nms_sampling/butadiene_geom.xyz.dir/butadiene_2731.chk
%nproc=8
%mem=16000MB
#p B2PLYPD3/Def2QZVP 

butadiene

0 1
C  -3.842892   0.190612   0.082088
C  -2.721960  -0.429186  -0.025992
C  -1.386411   0.048418  -0.048109
C  -0.261048  -0.670969   0.073196
H  -4.876454  -0.300607   0.083356
H  -3.817359   1.262628  -0.130496
H  -2.807202  -1.536499   0.148826
H  -1.247058   1.210390   0.082245
H  -0.188035  -1.731997   0.040538
H   0.662592  -0.154459   0.174904

