%chk=/home/boittier/MDCM/nms_sampling/butadiene_geom.xyz.dir/butadiene_434.chk
%nproc=8
%mem=16000MB
#p B2PLYPD3/Def2QZVP 

butadiene

0 1
C  -3.841094   0.223141   0.015719
C  -2.727444  -0.490236   0.044959
C  -1.380376   0.069332   0.021540
C  -0.259403  -0.654397   0.027522
H  -4.785429  -0.299179  -0.018974
H  -3.861523   1.289375  -0.034006
H  -2.807313  -1.573135   0.039250
H  -1.276344   1.138691   0.005559
H  -0.300708  -1.720150   0.087735
H   0.721741  -0.212651  -0.066108
