%chk=/home/boittier/MDCM/nms_sampling/butadiene_geom.xyz.dir/butadiene_79.chk
%nproc=8
%mem=16000MB
#p B2PLYPD3/Def2QZVP 

butadiene

0 1
C  -3.834763   0.228985   0.038241
C  -2.729647  -0.513305   0.008764
C  -1.380082   0.064663   0.004643
C  -0.256065  -0.646962   0.043610
H  -4.827723  -0.227629   0.033409
H  -3.797606   1.335465   0.010554
H  -2.848212  -1.599548   0.069788
H  -1.351444   1.142538  -0.058369
H  -0.296881  -1.719722   0.113295
H   0.714593  -0.156158   0.017974
