%chk=/home/boittier/MDCM/nms_sampling/butadiene_geom.xyz.dir/butadiene_108.chk
%nproc=8
%mem=16000MB
#p B2PLYPD3/Def2QZVP 

butadiene

0 1
C  -3.836828   0.228986   0.004926
C  -2.724410  -0.516740   0.046892
C  -1.385553   0.070423   0.042268
C  -0.259921  -0.650190   0.019825
H  -4.848137  -0.175502   0.000891
H  -3.784753   1.330607  -0.032960
H  -2.799675  -1.613302   0.086912
H  -1.352314   1.137618  -0.056322
H  -0.248146  -1.736753   0.020491
H   0.696261  -0.156445  -0.053766

