%chk=/home/boittier/MDCM/nms_sampling/butadiene_geom.xyz.dir/butadiene_2356.chk
%nproc=8
%mem=16000MB
#p B2PLYPD3/Def2QZVP 

butadiene

0 1
C  -3.822139   0.263213   0.050916
C  -2.745926  -0.579416  -0.023628
C  -1.399422   0.081156  -0.055630
C  -0.249234  -0.641453   0.094807
H  -4.885679  -0.191105   0.428510
H  -3.664876   1.365107   0.025215
H  -2.718695  -1.611902  -0.096106
H  -1.355040   1.179286  -0.074449
H  -0.265882  -1.731500   0.060359
H   0.702085  -0.121944   0.190978
