%chk=/home/boittier/MDCM/nms_sampling/butadiene_geom.xyz.dir/butadiene_1468.chk
%nproc=8
%mem=16000MB
#p B2PLYPD3/Def2QZVP 

butadiene

0 1
C  -3.864473   0.208233   0.056642
C  -2.722158  -0.478761  -0.016180
C  -1.353998   0.083027  -0.025676
C  -0.259691  -0.661197   0.079608
H  -4.799392  -0.336246   0.174585
H  -3.887086   1.277735  -0.009157
H  -2.794009  -1.524182  -0.012228
H  -1.255194   1.163948  -0.067416
H  -0.395791  -1.753668   0.082456
H   0.711883  -0.241223   0.022277

