%chk=/home/boittier/MDCM/nms_sampling/butadiene_geom.xyz.dir/butadiene_2469.chk
%nproc=8
%mem=16000MB
#p B2PLYPD3/Def2QZVP 

butadiene

0 1
C  -3.866663   0.204092  -0.015204
C  -2.695886  -0.477845   0.058571
C  -1.384794   0.107704   0.028681
C  -0.263978  -0.671609  -0.013695
H  -4.792668  -0.271451   0.096010
H  -3.844297   1.237195  -0.091748
H  -2.787638  -1.524963   0.321785
H  -1.402897   1.160013   0.218022
H  -0.347693  -1.758225  -0.008322
H   0.884453  -0.371505   0.193008

