%chk=/home/boittier/MDCM/nms_sampling/butadiene_geom.xyz.dir/butadiene_2624.chk
%nproc=8
%mem=16000MB
#p B2PLYPD3/Def2QZVP 

butadiene

0 1
C  -3.858344   0.255036  -0.023000
C  -2.725177  -0.504421   0.117888
C  -1.381354   0.029142   0.079367
C  -0.222452  -0.642090  -0.033384
H  -4.809861  -0.274833  -0.048344
H  -3.952010   1.293526  -0.413295
H  -2.765642  -1.607124   0.123699
H  -1.354221   1.098250   0.175715
H  -0.329122  -1.679620  -0.166699
H   0.648301  -0.122543   0.023858

