%chk=/home/boittier/MDCM/nms_sampling/butadiene_geom.xyz.dir/butadiene_2512.chk
%nproc=8
%mem=16000MB
#p B2PLYPD3/Def2QZVP 

butadiene

0 1
C  -3.819190   0.236201   0.059517
C  -2.683028  -0.533847  -0.024506
C  -1.403947   0.072940  -0.076283
C  -0.298996  -0.659031   0.098184
H  -4.855027  -0.080383   0.241666
H  -3.780205   1.324460   0.232203
H  -2.791747  -1.636233   0.023445
H  -1.408242   1.226785  -0.204261
H  -0.219608  -1.738314   0.023094
H   0.685535  -0.131814   0.325469

