%chk=/home/boittier/MDCM/nms_sampling/butadiene_geom.xyz.dir/butadiene_1238.chk
%nproc=8
%mem=16000MB
#p B2PLYPD3/Def2QZVP 

butadiene

0 1
C  -3.847232   0.209833   0.033187
C  -2.718117  -0.460870   0.014873
C  -1.385685   0.075861   0.019636
C  -0.256019  -0.674472   0.027133
H  -4.793010  -0.321374   0.000689
H  -3.921230   1.276922   0.080791
H  -2.768602  -1.529861  -0.012461
H  -1.337973   1.138485  -0.163671
H  -0.263277  -1.707778   0.223843
H   0.754571  -0.246972   0.030747

