%chk=/home/boittier/MDCM/nms_sampling/butadiene_geom.xyz.dir/butadiene_2726.chk
%nproc=8
%mem=16000MB
#p B2PLYPD3/Def2QZVP 

butadiene

0 1
C  -3.876066   0.176650  -0.029011
C  -2.706539  -0.441175   0.114548
C  -1.340356   0.105607   0.069850
C  -0.273278  -0.694321  -0.021581
H  -4.797236  -0.382513  -0.036519
H  -3.902584   1.294475  -0.349346
H  -2.836670  -1.528179   0.176206
H  -1.200438   1.265211   0.221411
H  -0.369610  -1.808097  -0.187125
H   0.613171  -0.182808  -0.032825

