%chk=/home/boittier/MDCM/nms_sampling/butadiene_geom.xyz.dir/butadiene_1221.chk
%nproc=8
%mem=16000MB
#p B2PLYPD3/Def2QZVP 

butadiene

0 1
C  -3.825090   0.236897   0.033822
C  -2.727041  -0.536515   0.032065
C  -1.389315   0.078374  -0.004979
C  -0.259009  -0.651690   0.033380
H  -4.885581  -0.181550  -0.091390
H  -3.699021   1.328338   0.099420
H  -2.805132  -1.621268   0.012169
H  -1.389323   1.188707  -0.064226
H  -0.299109  -1.734889   0.198959
H   0.667432  -0.132716   0.024716
