%chk=/home/boittier/MDCM/nms_sampling/butadiene_geom.xyz.dir/butadiene_2855.chk
%nproc=8
%mem=16000MB
#p B2PLYPD3/Def2QZVP 

butadiene

0 1
C  -3.811599   0.204499   0.092764
C  -2.689902  -0.474986  -0.038494
C  -1.381941   0.094890  -0.070107
C  -0.304386  -0.671637   0.109779
H  -4.748387  -0.329680  -0.088909
H  -4.002632   1.273640   0.262844
H  -2.820655  -1.544940  -0.005416
H  -1.213298   1.137176  -0.225015
H  -0.517294  -1.696749   0.183183
H   0.731179  -0.270354   0.023871
