%chk=/home/boittier/MDCM/nms_sampling/butadiene_geom.xyz.dir/butadiene_2174.chk
%nproc=8
%mem=16000MB
#p B2PLYPD3/Def2QZVP 

butadiene

0 1
C  -3.881535   0.177872   0.091600
C  -2.698521  -0.446002  -0.051505
C  -1.371091   0.118163  -0.046130
C  -0.248924  -0.691894   0.079482
H  -4.871127  -0.215883   0.145938
H  -3.918119   1.214187  -0.054788
H  -2.743251  -1.522999  -0.011271
H  -1.287502   1.141114   0.040561
H  -0.343226  -1.815518   0.291778
H   0.710062  -0.274747   0.039304

