%chk=/home/boittier/MDCM/nms_sampling/butadiene_geom.xyz.dir/butadiene_888.chk
%nproc=8
%mem=16000MB
#p B2PLYPD3/Def2QZVP 

butadiene

0 1
C  -3.845917   0.222959   0.022248
C  -2.727625  -0.507114   0.019211
C  -1.383094   0.065386   0.007901
C  -0.254560  -0.646463   0.044010
H  -4.833964  -0.207591   0.096669
H  -3.758239   1.334795   0.063334
H  -2.834867  -1.603608   0.012072
H  -1.313399   1.137808  -0.085114
H  -0.253969  -1.729404   0.118233
H   0.715855  -0.167594  -0.006206

