%chk=/home/boittier/MDCM/nms_sampling/butadiene_geom.xyz.dir/butadiene_2087.chk
%nproc=8
%mem=16000MB
#p B2PLYPD3/Def2QZVP 

butadiene

0 1
C  -3.828339   0.193918   0.044637
C  -2.710129  -0.458888  -0.038725
C  -1.387154   0.107953  -0.010492
C  -0.277810  -0.684689   0.070018
H  -4.769228  -0.333951   0.083910
H  -3.851400   1.216783   0.366077
H  -2.813374  -1.520138   0.022423
H  -1.340596   1.235788  -0.248129
H  -0.362506  -1.708281   0.338514
H   0.758772  -0.355683  -0.065758

