%chk=/home/boittier/MDCM/nms_sampling/butadiene_geom.xyz.dir/butadiene_1121.chk
%nproc=8
%mem=16000MB
#p B2PLYPD3/Def2QZVP 

butadiene

0 1
C  -3.855332   0.215742  -0.010554
C  -2.714497  -0.495305   0.076382
C  -1.365208   0.103427   0.027151
C  -0.264963  -0.669572   0.017697
H  -4.786154  -0.282106   0.007384
H  -3.862060   1.302509   0.027101
H  -2.782778  -1.622173  -0.013451
H  -1.369639   1.174625  -0.040457
H  -0.351101  -1.775545   0.039470
H   0.721622  -0.250919  -0.027275
