%chk=/home/boittier/MDCM/nms_sampling/butadiene_geom.xyz.dir/butadiene_1282.chk
%nproc=8
%mem=16000MB
#p B2PLYPD3/Def2QZVP 

butadiene

0 1
C  -3.843268   0.204160   0.002673
C  -2.698678  -0.467379   0.074434
C  -1.375994   0.084221   0.031452
C  -0.283694  -0.671280   0.007270
H  -4.808253  -0.306461  -0.028879
H  -3.808205   1.279335  -0.141304
H  -2.783812  -1.546729   0.090900
H  -1.318580   1.154716   0.030956
H  -0.379174  -1.794273  -0.058290
H   0.680469  -0.181827   0.070634
