%chk=/home/boittier/MDCM/nms_sampling/butadiene_geom.xyz.dir/butadiene_482.chk
%nproc=8
%mem=16000MB
#p B2PLYPD3/Def2QZVP 

butadiene

0 1
C  -3.838947   0.208512   0.014683
C  -2.708852  -0.480597   0.043550
C  -1.388092   0.077522   0.022156
C  -0.278704  -0.663400   0.028795
H  -4.798023  -0.246300   0.031766
H  -3.789499   1.302484  -0.073919
H  -2.765998  -1.565360   0.097933
H  -1.294248   1.161201  -0.021532
H  -0.300244  -1.724922  -0.032348
H   0.706976  -0.229336   0.033982
