%chk=/home/boittier/MDCM/nms_sampling/butadiene_geom.xyz.dir/butadiene_1601.chk
%nproc=8
%mem=16000MB
#p B2PLYPD3/Def2QZVP 

butadiene

0 1
C  -3.829131   0.210397   0.039728
C  -2.712269  -0.486151   0.012803
C  -1.392430   0.090708  -0.010709
C  -0.281957  -0.671889   0.069795
H  -4.773301  -0.300190   0.061798
H  -3.790299   1.314991   0.094492
H  -2.743711  -1.580359  -0.114157
H  -1.234243   1.191207  -0.160390
H  -0.369442  -1.736138   0.138127
H   0.689747  -0.195860  -0.077802
