%chk=/home/boittier/MDCM/nms_sampling/butadiene_geom.xyz.dir/butadiene_2446.chk
%nproc=8
%mem=16000MB
#p B2PLYPD3/Def2QZVP 

butadiene

0 1
C  -3.852023   0.250789   0.083177
C  -2.723603  -0.523324  -0.035102
C  -1.397568   0.035697  -0.042237
C  -0.237847  -0.643212   0.062602
H  -4.858833  -0.093293  -0.037365
H  -3.911835   1.287825   0.206475
H  -2.774698  -1.617644  -0.017533
H  -1.217908   1.082433  -0.186091
H  -0.109443  -1.715326   0.361826
H   0.588320  -0.028935   0.140348
