%chk=/home/boittier/MDCM/nms_sampling/butadiene_geom.xyz.dir/butadiene_130.chk
%nproc=8
%mem=16000MB
#p B2PLYPD3/Def2QZVP 

butadiene

0 1
C  -3.842260   0.221674   0.030447
C  -2.710449  -0.500417   0.022653
C  -1.383845   0.086341  -0.006704
C  -0.272556  -0.660200   0.052351
H  -4.797741  -0.265231   0.001148
H  -3.850880   1.286518   0.085394
H  -2.763818  -1.589612   0.035390
H  -1.302545   1.190549  -0.063603
H  -0.350481  -1.746340   0.099611
H   0.758882  -0.246549  -0.023421

