%chk=/home/boittier/MDCM/nms_sampling/butadiene_geom.xyz.dir/butadiene_546.chk
%nproc=8
%mem=16000MB
#p B2PLYPD3/Def2QZVP 

butadiene

0 1
C  -3.835343   0.235224   0.029246
C  -2.716805  -0.508124   0.021170
C  -1.392409   0.058720  -0.018958
C  -0.270594  -0.649472   0.051466
H  -4.830120  -0.218868   0.071830
H  -3.797168   1.301500   0.074969
H  -2.750921  -1.591254   0.046646
H  -1.316669   1.150861  -0.010595
H  -0.233112  -1.733108   0.102036
H   0.699194  -0.163214   0.057182

