%chk=/home/boittier/MDCM/nms_sampling/butadiene_geom.xyz.dir/butadiene_283.chk
%nproc=8
%mem=16000MB
#p B2PLYPD3/Def2QZVP 

butadiene

0 1
C  -3.844180   0.221021   0.036322
C  -2.719169  -0.491225   0.004453
C  -1.381277   0.074677  -0.008918
C  -0.265437  -0.662800   0.046652
H  -4.789811  -0.249387   0.139428
H  -3.873183   1.300837  -0.004672
H  -2.759450  -1.594469   0.058593
H  -1.292085   1.161749   0.010614
H  -0.277759  -1.746052   0.131258
H   0.694911  -0.178842   0.069248
