%chk=/home/boittier/MDCM/nms_sampling/butadiene_geom.xyz.dir/butadiene_1420.chk
%nproc=8
%mem=16000MB
#p B2PLYPD3/Def2QZVP 

butadiene

0 1
C  -3.850670   0.218851  -0.000887
C  -2.720793  -0.499716   0.051280
C  -1.381548   0.072421   0.026287
C  -0.252091  -0.663363   0.019252
H  -4.886843  -0.173945  -0.038075
H  -3.798350   1.297618   0.124778
H  -2.783995  -1.566187   0.079787
H  -1.358472   1.153060  -0.073831
H  -0.246709  -1.752809   0.106340
H   0.706480  -0.114100  -0.026137

