%chk=/home/boittier/MDCM/nms_sampling/butadiene_geom.xyz.dir/butadiene_43.chk
%nproc=8
%mem=16000MB
#p B2PLYPD3/Def2QZVP 

butadiene

0 1
C  -3.841421   0.218976   0.027489
C  -2.711765  -0.485595   0.024461
C  -1.388410   0.074443   0.003861
C  -0.267085  -0.661845   0.047120
H  -4.772224  -0.294355   0.023754
H  -3.850728   1.312387   0.020266
H  -2.792651  -1.558688   0.025877
H  -1.341172   1.162375  -0.019558
H  -0.294012  -1.747734   0.108992
H   0.740763  -0.225555  -0.070031
