%chk=/home/boittier/MDCM/nms_sampling/butadiene_geom.xyz.dir/butadiene_1046.chk
%nproc=8
%mem=16000MB
#p B2PLYPD3/Def2QZVP 

butadiene

0 1
C  -3.833581   0.251537   0.041544
C  -2.716589  -0.523763  -0.004560
C  -1.390110   0.043134  -0.035564
C  -0.252276  -0.641397   0.065513
H  -4.832315  -0.235917   0.209698
H  -3.850193   1.315756   0.042586
H  -2.893013  -1.583191   0.039008
H  -1.389086   1.127105   0.024914
H  -0.217198  -1.695468   0.121011
H   0.678390  -0.125018   0.110151

