%chk=/home/boittier/MDCM/nms_sampling/butadiene_geom.xyz.dir/butadiene_2489.chk
%nproc=8
%mem=16000MB
#p B2PLYPD3/Def2QZVP 

butadiene

0 1
C  -3.812924   0.235379   0.036721
C  -2.724627  -0.544004  -0.008105
C  -1.411527   0.072375   0.014088
C  -0.276893  -0.632763   0.067212
H  -4.900757  -0.160840   0.234302
H  -3.646459   1.335295  -0.091831
H  -2.750424  -1.649316   0.074544
H  -1.203943   1.231843  -0.133904
H  -0.287321  -1.724576  -0.095917
H   0.711600  -0.218576   0.030226
