%chk=/home/boittier/MDCM/nms_sampling/butadiene_geom.xyz.dir/butadiene_336.chk
%nproc=8
%mem=16000MB
#p B2PLYPD3/Def2QZVP 

butadiene

0 1
C  -3.853930   0.216501  -0.007899
C  -2.727539  -0.487950   0.058092
C  -1.372512   0.085168   0.037773
C  -0.253389  -0.664672   0.012118
H  -4.770199  -0.282293  -0.012849
H  -3.866696   1.291415   0.022991
H  -2.774432  -1.578208   0.143533
H  -1.333808   1.154177  -0.000381
H  -0.325712  -1.751203   0.023589
H   0.740602  -0.220503  -0.028375

