%chk=/home/boittier/MDCM/nms_sampling/butadiene_geom.xyz.dir/butadiene_1175.chk
%nproc=8
%mem=16000MB
#p B2PLYPD3/Def2QZVP 

butadiene

0 1
C  -3.837404   0.215725   0.041782
C  -2.698982  -0.485568   0.023485
C  -1.384186   0.076388  -0.034423
C  -0.289578  -0.666445   0.067963
H  -4.813592  -0.271726   0.101239
H  -3.805805   1.279937  -0.031387
H  -2.731334  -1.552725   0.001064
H  -1.258797   1.177970  -0.005705
H  -0.373848  -1.773632  -0.012042
H   0.678151  -0.146234   0.098816

