%chk=/home/boittier/MDCM/nms_sampling/butadiene_geom.xyz.dir/butadiene_2211.chk
%nproc=8
%mem=16000MB
#p B2PLYPD3/Def2QZVP 

butadiene

0 1
C  -3.828510   0.229890   0.052590
C  -2.740583  -0.518145  -0.038612
C  -1.405519   0.064161  -0.009756
C  -0.257343  -0.640954   0.072173
H  -4.877576  -0.109176   0.174637
H  -3.714727   1.332151  -0.023378
H  -2.645627  -1.652617   0.271205
H  -1.304122   1.141879   0.014972
H  -0.180868  -1.744060  -0.015712
H   0.710783  -0.196626   0.043194

