%chk=/home/boittier/MDCM/nms_sampling/butadiene_geom.xyz.dir/butadiene_1092.chk
%nproc=8
%mem=16000MB
#p B2PLYPD3/Def2QZVP 

butadiene

0 1
C  -3.841788   0.211666   0.051023
C  -2.706387  -0.499253  -0.008748
C  -1.383680   0.106509  -0.004246
C  -0.274985  -0.678025   0.074447
H  -4.861318  -0.217559   0.062033
H  -3.830010   1.278854   0.080465
H  -2.742637  -1.573220  -0.022493
H  -1.306165   1.195247  -0.219434
H  -0.312375  -1.782281   0.074624
H   0.702747  -0.190708  -0.035539
