%chk=/home/boittier/MDCM/nms_sampling/butadiene_geom.xyz.dir/butadiene_1979.chk
%nproc=8
%mem=16000MB
#p B2PLYPD3/Def2QZVP 

butadiene

0 1
C  -3.797911   0.246267   0.076713
C  -2.698751  -0.517118  -0.018039
C  -1.420229   0.035320  -0.023618
C  -0.266330  -0.640180   0.064115
H  -4.809428  -0.166966  -0.096573
H  -3.753194   1.329798   0.080453
H  -2.840483  -1.557206  -0.098206
H  -1.506658   1.120963  -0.046964
H  -0.307067  -1.757159   0.404847
H   0.592941  -0.106455  -0.152896

