%chk=/home/boittier/MDCM/nms_sampling/butadiene_geom.xyz.dir/butadiene_1771.chk
%nproc=8
%mem=16000MB
#p B2PLYPD3/Def2QZVP 

butadiene

0 1
C  -3.825436   0.229698  -0.009282
C  -2.711973  -0.519499   0.081015
C  -1.406783   0.067681   0.045989
C  -0.265869  -0.648263  -0.011676
H  -4.850637  -0.128477  -0.143483
H  -3.751471   1.312536  -0.036792
H  -2.770896  -1.565544   0.145896
H  -1.368488   1.123634   0.066127
H  -0.253051  -1.741514   0.071207
H   0.700391  -0.177934  -0.022225

