%chk=/home/boittier/MDCM/nms_sampling/butadiene_geom.xyz.dir/butadiene_966.chk
%nproc=8
%mem=16000MB
#p B2PLYPD3/Def2QZVP 

butadiene

0 1
C  -3.842598   0.240499   0.028807
C  -2.726408  -0.510758   0.040023
C  -1.387092   0.040753  -0.007685
C  -0.247462  -0.632759   0.053992
H  -4.822282  -0.209539  -0.014599
H  -3.744822   1.307819   0.051347
H  -2.845316  -1.599986  -0.072907
H  -1.387935   1.071779  -0.087576
H  -0.269265  -1.719587   0.089125
H   0.697899  -0.138638  -0.048699

