%chk=/home/boittier/MDCM/nms_sampling/butadiene_geom.xyz.dir/butadiene_140.chk
%nproc=8
%mem=16000MB
#p B2PLYPD3/Def2QZVP 

butadiene

0 1
C  -3.833276   0.227242   0.008700
C  -2.721591  -0.518076   0.047370
C  -1.387346   0.070676   0.017940
C  -0.262044  -0.648465   0.029048
H  -4.858377  -0.194344   0.010263
H  -3.734425   1.333104  -0.034799
H  -2.815806  -1.596034   0.138034
H  -1.338283   1.152980   0.027052
H  -0.291963  -1.744569  -0.025678
H   0.672785  -0.151399   0.004747
