%chk=/home/boittier/MDCM/nms_sampling/butadiene_geom.xyz.dir/butadiene_570.chk
%nproc=8
%mem=16000MB
#p B2PLYPD3/Def2QZVP 

butadiene

0 1
C  -3.831058   0.238380   0.006537
C  -2.724511  -0.513051   0.048968
C  -1.388588   0.062854   0.032463
C  -0.263375  -0.646529   0.015101
H  -4.799441  -0.248003   0.035909
H  -3.772027   1.311675  -0.118476
H  -2.811016  -1.623833   0.119723
H  -1.370779   1.139640   0.081372
H  -0.271855  -1.725899   0.025754
H   0.704897  -0.174137  -0.018785

