%chk=/home/boittier/MDCM/nms_sampling/butadiene_geom.xyz.dir/butadiene_1557.chk
%nproc=8
%mem=16000MB
#p B2PLYPD3/Def2QZVP 

butadiene

0 1
C  -3.852187   0.226559   0.035235
C  -2.706975  -0.485290   0.020210
C  -1.372374   0.065743  -0.008928
C  -0.266236  -0.665106   0.038565
H  -4.762358  -0.304153   0.042955
H  -3.940067   1.279422   0.077206
H  -2.767092  -1.545748   0.009868
H  -1.346272   1.169482  -0.113722
H  -0.344645  -1.709832   0.138003
H   0.712418  -0.204137   0.142868

