%chk=/home/boittier/MDCM/nms_sampling/butadiene_geom.xyz.dir/butadiene_843.chk
%nproc=8
%mem=16000MB
#p B2PLYPD3/Def2QZVP 

butadiene

0 1
C  -3.842148   0.227618   0.038982
C  -2.716438  -0.499115   0.019010
C  -1.385441   0.054027  -0.025596
C  -0.260482  -0.645684   0.063888
H  -4.795191  -0.225830   0.093976
H  -3.801300   1.301886   0.009313
H  -2.823292  -1.582144   0.004411
H  -1.344744   1.145341  -0.033884
H  -0.305253  -1.729674   0.033789
H   0.706732  -0.173361   0.067699
