%chk=/home/boittier/MDCM/nms_sampling/butadiene_geom.xyz.dir/butadiene_1944.chk
%nproc=8
%mem=16000MB
#p B2PLYPD3/Def2QZVP 

butadiene

0 1
C  -3.848239   0.218999   0.019474
C  -2.746345  -0.508561   0.000472
C  -1.376980   0.072738  -0.031178
C  -0.242877  -0.661430   0.052835
H  -4.913119  -0.139016   0.207882
H  -3.693712   1.351627   0.151393
H  -2.691929  -1.587609   0.251338
H  -1.420881   1.101808   0.041729
H  -0.249882  -1.744201   0.020740
H   0.722641  -0.063272   0.220117

