%chk=/home/boittier/MDCM/nms_sampling/butadiene_geom.xyz.dir/butadiene_2289.chk
%nproc=8
%mem=16000MB
#p B2PLYPD3/Def2QZVP 

butadiene

0 1
C  -3.827340   0.229545  -0.050396
C  -2.733740  -0.553173   0.119844
C  -1.380210   0.082626   0.089488
C  -0.270813  -0.647081  -0.018702
H  -4.900053  -0.085597  -0.228551
H  -3.797355   1.374351  -0.024173
H  -2.693734  -1.593957   0.252644
H  -1.260315   1.218995   0.033992
H  -0.296232  -1.745490  -0.153987
H   0.685509  -0.141205  -0.204966
