%chk=/home/boittier/MDCM/nms_sampling/butadiene_geom.xyz.dir/butadiene_2387.chk
%nproc=8
%mem=16000MB
#p B2PLYPD3/Def2QZVP 

butadiene

0 1
C  -3.826241   0.237184   0.041814
C  -2.708259  -0.522193  -0.006970
C  -1.414474   0.079488  -0.042417
C  -0.257579  -0.647103   0.079102
H  -4.869783  -0.212286  -0.032473
H  -3.764063   1.330249   0.400431
H  -2.766899  -1.654697   0.031251
H  -1.442118   1.182852  -0.187976
H  -0.289097  -1.707058   0.238773
H   0.810953  -0.318225  -0.018135
