%chk=/home/boittier/MDCM/nms_sampling/butadiene_geom.xyz.dir/butadiene_2473.chk
%nproc=8
%mem=16000MB
#p B2PLYPD3/Def2QZVP 

butadiene

0 1
C  -3.800598   0.216885  -0.042575
C  -2.703564  -0.478305   0.104933
C  -1.416684   0.082383   0.059889
C  -0.284374  -0.658675   0.007563
H  -4.722343  -0.270947   0.008047
H  -3.853058   1.259184  -0.087717
H  -2.784935  -1.566414   0.066174
H  -1.449175   1.199440   0.118153
H  -0.318965  -1.814175  -0.076401
H   0.775656  -0.337306  -0.233853
