%chk=/home/boittier/MDCM/nms_sampling/butadiene_geom.xyz.dir/butadiene_292.chk
%nproc=8
%mem=16000MB
#p B2PLYPD3/Def2QZVP 

butadiene

0 1
C  -3.846011   0.233795   0.041147
C  -2.727532  -0.512042   0.025158
C  -1.378812   0.053685  -0.007615
C  -0.253865  -0.637469   0.046609
H  -4.809920  -0.214722   0.003984
H  -3.798152   1.311284  -0.006577
H  -2.805305  -1.592640  -0.020524
H  -1.329129   1.108934  -0.076558
H  -0.313680  -1.723852   0.098554
H   0.718533  -0.171864   0.051455

