%chk=/home/boittier/MDCM/nms_sampling/butadiene_geom.xyz.dir/butadiene_1777.chk
%nproc=8
%mem=16000MB
#p B2PLYPD3/Def2QZVP 

butadiene

0 1
C  -3.844002   0.207945   0.032579
C  -2.694658  -0.475953   0.025872
C  -1.383042   0.084439  -0.001578
C  -0.288146  -0.671889   0.031212
H  -4.819162  -0.298861  -0.078660
H  -3.831059   1.320241   0.129533
H  -2.684848  -1.551299   0.050092
H  -1.274143   1.160261  -0.093935
H  -0.399350  -1.760922   0.192991
H   0.704136  -0.201228   0.057492
