%chk=/home/boittier/MDCM/nms_sampling/butadiene_geom.xyz.dir/butadiene_2830.chk
%nproc=8
%mem=16000MB
#p B2PLYPD3/Def2QZVP 

butadiene

0 1
C  -3.821908   0.200722   0.092027
C  -2.691977  -0.470220  -0.029127
C  -1.402130   0.086775  -0.118326
C  -0.308750  -0.662116   0.129655
H  -4.828627  -0.263047   0.195677
H  -3.779670   1.330946   0.041875
H  -2.591119  -1.585024  -0.045606
H  -1.234886   1.185862   0.037247
H  -0.349037  -1.776319   0.031967
H   0.674142  -0.333903   0.188813

