%chk=/home/boittier/MDCM/nms_sampling/butadiene_geom.xyz.dir/butadiene_788.chk
%nproc=8
%mem=16000MB
#p B2PLYPD3/Def2QZVP 

butadiene

0 1
C  -3.833453   0.223829   0.038269
C  -2.729532  -0.509658   0.005301
C  -1.384118   0.072049  -0.008598
C  -0.260743  -0.652551   0.060539
H  -4.829681  -0.214101   0.105821
H  -3.755931   1.311409   0.018784
H  -2.812336  -1.580518   0.024407
H  -1.327878   1.145234  -0.046862
H  -0.293752  -1.712750   0.089273
H   0.701035  -0.168497  -0.010285

