%chk=/home/boittier/MDCM/nms_sampling/butadiene_geom.xyz.dir/butadiene_253.chk
%nproc=8
%mem=16000MB
#p B2PLYPD3/Def2QZVP 

butadiene

0 1
C  -3.851958   0.210355   0.035325
C  -2.716665  -0.482378   0.013619
C  -1.378210   0.080338   0.004593
C  -0.261833  -0.659558   0.038067
H  -4.803556  -0.285696   0.063009
H  -3.794482   1.298994   0.024851
H  -2.777421  -1.569994   0.007272
H  -1.318941   1.179409  -0.087841
H  -0.349174  -1.759224   0.156019
H   0.729571  -0.245100   0.056129

