%chk=/home/boittier/MDCM/nms_sampling/butadiene_geom.xyz.dir/butadiene_492.chk
%nproc=8
%mem=16000MB
#p B2PLYPD3/Def2QZVP 

butadiene

0 1
C  -3.851713   0.217698   0.025861
C  -2.721419  -0.490943   0.031709
C  -1.373370   0.088016   0.007819
C  -0.259812  -0.665340   0.033368
H  -4.797062  -0.295651   0.017361
H  -3.851828   1.284445   0.030421
H  -2.799888  -1.575721   0.022143
H  -1.323985   1.171739  -0.093812
H  -0.301867  -1.728430   0.093923
H   0.733099  -0.247636   0.064745

