%chk=/home/boittier/MDCM/nms_sampling/butadiene_geom.xyz.dir/butadiene_134.chk
%nproc=8
%mem=16000MB
#p B2PLYPD3/Def2QZVP 

butadiene

0 1
C  -3.826925   0.234377   0.007756
C  -2.719083  -0.507423   0.053297
C  -1.395236   0.050538   0.032195
C  -0.270617  -0.637646   0.010769
H  -4.808053  -0.231748  -0.024658
H  -3.780020   1.330443  -0.020675
H  -2.777122  -1.593746   0.077445
H  -1.322337   1.117550  -0.046496
H  -0.277899  -1.727988   0.058139
H   0.703557  -0.193237   0.042766
