%chk=/home/boittier/MDCM/nms_sampling/butadiene_geom.xyz.dir/butadiene_879.chk
%nproc=8
%mem=16000MB
#p B2PLYPD3/Def2QZVP 

butadiene

0 1
C  -3.848386   0.231440   0.015819
C  -2.730120  -0.506602   0.046619
C  -1.380379   0.063881   0.024375
C  -0.248170  -0.647338   0.020063
H  -4.818066  -0.261419   0.016107
H  -3.794050   1.311015  -0.109243
H  -2.833451  -1.602932   0.113094
H  -1.332685   1.137336   0.006135
H  -0.282909  -1.732043  -0.022314
H   0.733507  -0.165890   0.067407

