%chk=/home/boittier/MDCM/nms_sampling/butadiene_geom.xyz.dir/butadiene_1892.chk
%nproc=8
%mem=16000MB
#p B2PLYPD3/Def2QZVP 

butadiene

0 1
C  -3.847709   0.222749   0.028227
C  -2.700336  -0.484430   0.001624
C  -1.381509   0.068809   0.001372
C  -0.271861  -0.664610   0.040823
H  -4.812866  -0.301986   0.136410
H  -3.948173   1.310083   0.030533
H  -2.747925  -1.545006   0.165102
H  -1.313352   1.161685  -0.010194
H  -0.319989  -1.730749   0.073318
H   0.741097  -0.212630   0.102559

