%chk=/home/boittier/MDCM/nms_sampling/butadiene_geom.xyz.dir/butadiene_131.chk
%nproc=8
%mem=16000MB
#p B2PLYPD3/Def2QZVP 

butadiene

0 1
C  -3.859437   0.214644   0.007965
C  -2.713355  -0.485959   0.053430
C  -1.374868   0.082152   0.033674
C  -0.262267  -0.667575   0.015709
H  -4.823092  -0.253561   0.025039
H  -3.842432   1.286139  -0.126273
H  -2.720567  -1.575274   0.082459
H  -1.300462   1.157622   0.037544
H  -0.336624  -1.729844   0.008184
H   0.720750  -0.206662  -0.005595
