%chk=/home/boittier/MDCM/nms_sampling/butadiene_geom.xyz.dir/butadiene_1056.chk
%nproc=8
%mem=16000MB
#p B2PLYPD3/Def2QZVP 

butadiene

0 1
C  -3.850624   0.214126   0.055168
C  -2.721054  -0.477309   0.012402
C  -1.373618   0.090413  -0.027638
C  -0.260396  -0.673575   0.056210
H  -4.751889  -0.335698   0.050269
H  -3.975012   1.294579  -0.047135
H  -2.783214  -1.541754  -0.008180
H  -1.289843   1.141961  -0.034630
H  -0.278849  -1.733925   0.084862
H   0.731967  -0.257806   0.129460
