%chk=/home/boittier/MDCM/nms_sampling/butadiene_geom.xyz.dir/butadiene_132.chk
%nproc=8
%mem=16000MB
#p B2PLYPD3/Def2QZVP 

butadiene

0 1
C  -3.844275   0.217504   0.039834
C  -2.723296  -0.480737   0.005968
C  -1.378019   0.077404   0.004270
C  -0.259013  -0.664243   0.054534
H  -4.788527  -0.311901   0.045595
H  -3.870864   1.296728   0.034946
H  -2.782834  -1.566595   0.025569
H  -1.334880   1.156438  -0.123654
H  -0.298254  -1.759579   0.090064
H   0.712661  -0.211807  -0.015552
