%chk=/home/boittier/MDCM/nms_sampling/butadiene_geom.xyz.dir/butadiene_2520.chk
%nproc=8
%mem=16000MB
#p B2PLYPD3/Def2QZVP 

butadiene

0 1
C  -3.811138   0.238146  -0.004135
C  -2.687744  -0.514648   0.067314
C  -1.402939   0.095407   0.080015
C  -0.296326  -0.663158  -0.016236
H  -4.817645  -0.299956   0.100363
H  -3.931364   1.305302  -0.460258
H  -2.744831  -1.657356   0.173706
H  -1.304081   1.210346   0.201022
H  -0.343877  -1.736827  -0.119839
H   0.708026  -0.297361  -0.017550

