%chk=/home/boittier/MDCM/nms_sampling/butadiene_geom.xyz.dir/butadiene_1082.chk
%nproc=8
%mem=16000MB
#p B2PLYPD3/Def2QZVP 

butadiene

0 1
C  -3.825968   0.222540   0.025833
C  -2.707819  -0.496286   0.025971
C  -1.382261   0.074485  -0.010804
C  -0.291889  -0.655563   0.048663
H  -4.762381  -0.288507   0.087307
H  -3.843735   1.301504  -0.055454
H  -2.764581  -1.564795   0.134398
H  -1.299981   1.172535   0.095842
H  -0.378748  -1.766897  -0.006885
H   0.727152  -0.202964   0.039300
