%chk=/home/boittier/MDCM/nms_sampling/butadiene_geom.xyz.dir/butadiene_1363.chk
%nproc=8
%mem=16000MB
#p B2PLYPD3/Def2QZVP 

butadiene

0 1
C  -3.821626   0.239743  -0.013204
C  -2.739275  -0.534532   0.077294
C  -1.390211   0.061588   0.060497
C  -0.256358  -0.632991  -0.013317
H  -4.782479  -0.225993  -0.085986
H  -3.725161   1.351253  -0.015097
H  -2.853421  -1.603601   0.088435
H  -1.349642   1.140330  -0.055604
H  -0.321569  -1.703720   0.066525
H   0.725283  -0.189246  -0.002742
