%chk=/home/boittier/MDCM/nms_sampling/butadiene_geom.xyz.dir/butadiene_2582.chk
%nproc=8
%mem=16000MB
#p B2PLYPD3/Def2QZVP 

butadiene

0 1
C  -3.806793   0.240726  -0.019210
C  -2.722505  -0.533841   0.083525
C  -1.395969   0.057463   0.102810
C  -0.265512  -0.642390  -0.021007
H  -4.743817  -0.220982  -0.268486
H  -3.753760   1.349658  -0.096446
H  -2.914556  -1.563803   0.200960
H  -1.343116   1.129138   0.011038
H  -0.381682  -1.718680   0.027746
H   0.613049  -0.078297  -0.292856

