%chk=/home/boittier/MDCM/nms_sampling/butadiene_geom.xyz.dir/butadiene_1642.chk
%nproc=8
%mem=16000MB
#p B2PLYPD3/Def2QZVP 

butadiene

0 1
C  -3.836625   0.200632  -0.004311
C  -2.695320  -0.471062   0.051630
C  -1.395058   0.087627   0.038719
C  -0.286009  -0.674154   0.018622
H  -4.776573  -0.258530   0.067348
H  -3.809600   1.290898  -0.149720
H  -2.785872  -1.518901   0.200760
H  -1.297741   1.172304   0.147180
H  -0.303983  -1.764865  -0.063859
H   0.704769  -0.226611  -0.071420
