%chk=/home/boittier/MDCM/nms_sampling/butadiene_geom.xyz.dir/butadiene_27.chk
%nproc=8
%mem=16000MB
#p B2PLYPD3/Def2QZVP 

butadiene

0 1
C  -3.837056   0.229963   0.002755
C  -2.714703  -0.504743   0.050365
C  -1.391196   0.063774   0.038282
C  -0.266307  -0.658866   0.007305
H  -4.826725  -0.231666   0.072985
H  -3.794472   1.325184  -0.098978
H  -2.745845  -1.572700   0.087327
H  -1.333268   1.160197   0.017812
H  -0.282841  -1.729714   0.041743
H   0.680388  -0.130521   0.047807

