%chk=/home/boittier/MDCM/nms_sampling/butadiene_geom.xyz.dir/butadiene_1874.chk
%nproc=8
%mem=16000MB
#p B2PLYPD3/Def2QZVP 

butadiene

0 1
C  -3.826527   0.232025   0.005153
C  -2.714080  -0.518759   0.041025
C  -1.401200   0.076988   0.036478
C  -0.274326  -0.658433   0.003368
H  -4.794547  -0.193632   0.059853
H  -3.731145   1.345443  -0.069598
H  -2.784339  -1.607350   0.154547
H  -1.351274   1.133195   0.043247
H  -0.231468  -1.748531   0.073338
H   0.672110  -0.128967   0.072724
