%chk=/home/boittier/MDCM/nms_sampling/butadiene_geom.xyz.dir/butadiene_2703.chk
%nproc=8
%mem=16000MB
#p B2PLYPD3/Def2QZVP 

butadiene

0 1
C  -3.884119   0.205166   0.045067
C  -2.723584  -0.470358  -0.034795
C  -1.334758   0.110772   0.001370
C  -0.247532  -0.680133   0.060774
H  -4.750731  -0.392448   0.288790
H  -3.966873   1.237198   0.052611
H  -2.830876  -1.514262   0.053695
H  -1.372000   1.195374  -0.175529
H  -0.363366  -1.772679   0.114012
H   0.726669  -0.323580   0.125429
