%chk=/home/boittier/MDCM/nms_sampling/butadiene_geom.xyz.dir/butadiene_2013.chk
%nproc=8
%mem=16000MB
#p B2PLYPD3/Def2QZVP 

butadiene

0 1
C  -3.857559   0.220078   0.002136
C  -2.733890  -0.504848   0.064783
C  -1.360203   0.030388   0.110550
C  -0.248243  -0.628757  -0.021309
H  -4.911942  -0.117295  -0.214842
H  -3.641441   1.334440  -0.192603
H  -2.826158  -1.599775   0.128490
H  -1.376609   1.152352  -0.114042
H  -0.270700  -1.720616   0.020685
H   0.598788  -0.099115  -0.187096

