%chk=/home/boittier/MDCM/nms_sampling/butadiene_geom.xyz.dir/butadiene_220.chk
%nproc=8
%mem=16000MB
#p B2PLYPD3/Def2QZVP 

butadiene

0 1
C  -3.828937   0.236074   0.029847
C  -2.711325  -0.516376   0.031307
C  -1.389122   0.067330  -0.001340
C  -0.269442  -0.650635   0.039613
H  -4.809302  -0.225275   0.046305
H  -3.811131   1.316554  -0.028976
H  -2.827531  -1.602285   0.021316
H  -1.376227   1.160825  -0.029705
H  -0.283342  -1.734327   0.065133
H   0.674980  -0.178314   0.064750
