%chk=/home/boittier/MDCM/nms_sampling/butadiene_geom.xyz.dir/butadiene_1108.chk
%nproc=8
%mem=16000MB
#p B2PLYPD3/Def2QZVP 

butadiene

0 1
C  -3.848841   0.207070   0.057001
C  -2.717138  -0.467948   0.022937
C  -1.385841   0.084595  -0.030659
C  -0.266463  -0.677728   0.060738
H  -4.752956  -0.266480  -0.042944
H  -3.856774   1.258386   0.052486
H  -2.739623  -1.537235  -0.154315
H  -1.323704   1.182891  -0.124475
H  -0.251010  -1.748793   0.195570
H   0.723571  -0.223842   0.032638
