%chk=/home/boittier/MDCM/nms_sampling/butadiene_geom.xyz.dir/butadiene_867.chk
%nproc=8
%mem=16000MB
#p B2PLYPD3/Def2QZVP 

butadiene

0 1
C  -3.845541   0.218009  -0.006970
C  -2.719928  -0.488937   0.057422
C  -1.381840   0.078333   0.043419
C  -0.259698  -0.659048   0.009466
H  -4.817562  -0.255584   0.008731
H  -3.852069   1.269955  -0.005723
H  -2.780581  -1.558560   0.082834
H  -1.335753   1.149938   0.002059
H  -0.297591  -1.748642   0.077451
H   0.748815  -0.237982  -0.066059
