%chk=/home/boittier/MDCM/nms_sampling/butadiene_geom.xyz.dir/butadiene_576.chk
%nproc=8
%mem=16000MB
#p B2PLYPD3/Def2QZVP 

butadiene

0 1
C  -3.832125   0.210417   0.037542
C  -2.704643  -0.482009   0.006358
C  -1.387675   0.086667   0.003781
C  -0.280130  -0.671268   0.043902
H  -4.834948  -0.254863   0.104921
H  -3.828155   1.293925   0.008452
H  -2.748024  -1.561524   0.016462
H  -1.328577   1.155804  -0.095619
H  -0.323051  -1.751301   0.125123
H   0.692187  -0.207324   0.063913
