%chk=/home/boittier/MDCM/nms_sampling/butadiene_geom.xyz.dir/butadiene_1924.chk
%nproc=8
%mem=16000MB
#p B2PLYPD3/Def2QZVP 

butadiene

0 1
C  -3.816059   0.250793  -0.026916
C  -2.722899  -0.541994   0.071008
C  -1.395832   0.041148   0.065212
C  -0.269784  -0.640078  -0.022841
H  -4.898321  -0.075070   0.117787
H  -3.617058   1.336563  -0.238315
H  -2.753476  -1.576550   0.223213
H  -1.523157   1.100799   0.281902
H  -0.201763  -1.768514   0.031251
H   0.621102   0.007330  -0.038039

