%chk=/home/boittier/MDCM/nms_sampling/butadiene_geom.xyz.dir/butadiene_2767.chk
%nproc=8
%mem=16000MB
#p B2PLYPD3/Def2QZVP 

butadiene

0 1
C  -3.808043   0.232974   0.025507
C  -2.722786  -0.541731  -0.005631
C  -1.398532   0.082516  -0.008480
C  -0.271019  -0.629819   0.065221
H  -4.800450  -0.182950   0.384775
H  -3.675442   1.321736  -0.053247
H  -2.917466  -1.605379   0.019177
H  -1.429739   1.173727  -0.016874
H  -0.317348  -1.725353   0.008291
H   0.740535  -0.329010   0.093314
