%chk=/home/boittier/MDCM/nms_sampling/butadiene_geom.xyz.dir/butadiene_2739.chk
%nproc=8
%mem=16000MB
#p B2PLYPD3/Def2QZVP 

butadiene

0 1
C  -3.863992   0.199433   0.010657
C  -2.689591  -0.449250   0.077271
C  -1.361210   0.101905   0.010364
C  -0.293689  -0.698768   0.007941
H  -4.753545  -0.347494   0.045658
H  -4.009818   1.212372  -0.292232
H  -2.793818  -1.563525   0.107294
H  -1.239104   1.243674   0.192431
H  -0.278285  -1.770755  -0.104957
H   0.729994  -0.196328   0.169132
