%chk=/home/boittier/MDCM/nms_sampling/butadiene_geom.xyz.dir/butadiene_422.chk
%nproc=8
%mem=16000MB
#p B2PLYPD3/Def2QZVP 

butadiene

0 1
C  -3.849699   0.219484   0.039114
C  -2.717199  -0.490950   0.014473
C  -1.376142   0.064540  -0.012949
C  -0.265086  -0.655421   0.058111
H  -4.835352  -0.243103   0.075529
H  -3.815257   1.287646   0.003185
H  -2.759304  -1.560482   0.056993
H  -1.282520   1.162138  -0.076849
H  -0.307207  -1.724102   0.001266
H   0.679224  -0.185597   0.087972
