%chk=/home/boittier/MDCM/nms_sampling/butadiene_geom.xyz.dir/butadiene_1528.chk
%nproc=8
%mem=16000MB
#p B2PLYPD3/Def2QZVP 

butadiene

0 1
C  -3.848604   0.204461  -0.016050
C  -2.718116  -0.460145   0.094057
C  -1.380786   0.075182   0.042209
C  -0.258536  -0.666942   0.008127
H  -4.760585  -0.321162  -0.093354
H  -3.943197   1.292533  -0.073360
H  -2.794041  -1.511174   0.067616
H  -1.338337   1.157565   0.044575
H  -0.286619  -1.761951  -0.048167
H   0.778470  -0.271442  -0.097006
