%chk=/home/boittier/MDCM/nms_sampling/butadiene_geom.xyz.dir/butadiene_842.chk
%nproc=8
%mem=16000MB
#p B2PLYPD3/Def2QZVP 

butadiene

0 1
C  -3.839689   0.218747   0.030427
C  -2.723876  -0.497200   0.020256
C  -1.384246   0.072352  -0.006015
C  -0.260044  -0.653838   0.046463
H  -4.794893  -0.250153   0.020593
H  -3.822673   1.312235   0.112750
H  -2.830498  -1.561274   0.025289
H  -1.321117   1.161628  -0.106098
H  -0.280926  -1.725949   0.126295
H   0.733102  -0.223199   0.042791

