%chk=/home/boittier/MDCM/nms_sampling/butadiene_geom.xyz.dir/butadiene_1782.chk
%nproc=8
%mem=16000MB
#p B2PLYPD3/Def2QZVP 

butadiene

0 1
C  -3.837632   0.247908  -0.000974
C  -2.718580  -0.536655   0.075143
C  -1.385314   0.061530   0.021771
C  -0.260065  -0.634508   0.009627
H  -4.805005  -0.195494  -0.026383
H  -3.773721   1.324467  -0.177213
H  -2.810826  -1.650409   0.184698
H  -1.360926   1.135656   0.193812
H  -0.332560  -1.749384  -0.077125
H   0.686915  -0.162911   0.026614
