%chk=/home/boittier/MDCM/nms_sampling/butadiene_geom.xyz.dir/butadiene_1989.chk
%nproc=8
%mem=16000MB
#p B2PLYPD3/Def2QZVP 

butadiene

0 1
C  -3.814073   0.248393  -0.056633
C  -2.730163  -0.526084   0.122158
C  -1.429906   0.017832   0.084747
C  -0.260026  -0.628453  -0.036271
H  -4.802235  -0.150325  -0.184618
H  -3.618190   1.427371   0.028650
H  -2.741764  -1.599269   0.149449
H  -1.285647   1.061042   0.120264
H  -0.147731  -1.686733   0.093193
H   0.625484  -0.027990  -0.223702
