%chk=/home/boittier/MDCM/nms_sampling/butadiene_geom.xyz.dir/butadiene_2578.chk
%nproc=8
%mem=16000MB
#p B2PLYPD3/Def2QZVP 

butadiene

0 1
C  -3.836010   0.229386  -0.023158
C  -2.746138  -0.536312   0.070962
C  -1.401316   0.043526   0.108458
C  -0.248940  -0.617740  -0.040709
H  -4.880933  -0.049561  -0.037487
H  -3.617415   1.327800  -0.096812
H  -2.757662  -1.552461   0.091275
H  -1.261696   1.108822  -0.090096
H  -0.219557  -1.739629   0.131481
H   0.730983  -0.147965  -0.058198
