%chk=/home/boittier/MDCM/nms_sampling/butadiene_geom.xyz.dir/butadiene_2558.chk
%nproc=8
%mem=16000MB
#p B2PLYPD3/Def2QZVP 

butadiene

0 1
C  -3.823188   0.203786   0.089114
C  -2.690972  -0.463213   0.003764
C  -1.401012   0.127406  -0.049994
C  -0.280267  -0.700142   0.086814
H  -4.691581  -0.398157  -0.117810
H  -3.877330   1.273022   0.071250
H  -2.742219  -1.510174  -0.256127
H  -1.432486   1.188722  -0.243692
H  -0.415075  -1.795512   0.220636
H   0.677506  -0.335132   0.007041
