%chk=/home/boittier/MDCM/nms_sampling/butadiene_geom.xyz.dir/butadiene_466.chk
%nproc=8
%mem=16000MB
#p B2PLYPD3/Def2QZVP 

butadiene

0 1
C  -3.849845   0.222440   0.020831
C  -2.712517  -0.485014   0.035111
C  -1.382461   0.075363   0.001957
C  -0.263848  -0.660340   0.035668
H  -4.779177  -0.309314  -0.002955
H  -3.874772   1.292448   0.065079
H  -2.744409  -1.558494   0.041740
H  -1.326316   1.152427  -0.026539
H  -0.321405  -1.775116   0.124255
H   0.733395  -0.230201   0.003307

