%chk=/home/boittier/MDCM/nms_sampling/butadiene_geom.xyz.dir/butadiene_201.chk
%nproc=8
%mem=16000MB
#p B2PLYPD3/Def2QZVP 

butadiene

0 1
C  -3.842839   0.224670   0.010642
C  -2.726910  -0.501177   0.051242
C  -1.385442   0.054967   0.023005
C  -0.252685  -0.645717   0.015786
H  -4.860299  -0.180719  -0.019210
H  -3.772077   1.301551  -0.089634
H  -2.816406  -1.594569   0.164485
H  -1.322925   1.121061   0.068993
H  -0.243082  -1.709200  -0.008636
H   0.693355  -0.153703   0.043268
