%chk=/home/boittier/MDCM/nms_sampling/butadiene_geom.xyz.dir/butadiene_1337.chk
%nproc=8
%mem=16000MB
#p B2PLYPD3/Def2QZVP 

butadiene

0 1
C  -3.846893   0.232872   0.033879
C  -2.733760  -0.511074   0.025294
C  -1.377574   0.067446  -0.032981
C  -0.253537  -0.648384   0.066872
H  -4.776347  -0.262047   0.092307
H  -3.786353   1.327299   0.136183
H  -2.849271  -1.591303  -0.118841
H  -1.350792   1.117193  -0.114694
H  -0.232569  -1.730016   0.139515
H   0.726136  -0.168283   0.043904

