%chk=/home/boittier/MDCM/nms_sampling/butadiene_geom.xyz.dir/butadiene_2755.chk
%nproc=8
%mem=16000MB
#p B2PLYPD3/Def2QZVP 

butadiene

0 1
C  -3.855745   0.201262   0.047493
C  -2.713149  -0.476499  -0.008626
C  -1.369122   0.089100  -0.029536
C  -0.246778  -0.667357   0.092065
H  -4.813866  -0.229973   0.163612
H  -3.810322   1.243353   0.229506
H  -2.832356  -1.576031  -0.268041
H  -1.442725   1.179715  -0.259715
H  -0.502702  -1.766077   0.274039
H   0.774804  -0.215401  -0.114430

