%chk=/home/boittier/MDCM/nms_sampling/butadiene_geom.xyz.dir/butadiene_1201.chk
%nproc=8
%mem=16000MB
#p B2PLYPD3/Def2QZVP 

butadiene

0 1
C  -3.819522   0.239910   0.033910
C  -2.718858  -0.528031  -0.002077
C  -1.392756   0.056967   0.001407
C  -0.279502  -0.637827   0.036807
H  -4.830287  -0.175638   0.166808
H  -3.766458   1.281292  -0.026838
H  -2.824980  -1.586605   0.128928
H  -1.285483   1.143934   0.018865
H  -0.271167  -1.710258   0.117237
H   0.695177  -0.154927   0.117642

