%chk=/home/boittier/MDCM/nms_sampling/butadiene_geom.xyz.dir/butadiene_790.chk
%nproc=8
%mem=16000MB
#p B2PLYPD3/Def2QZVP 

butadiene

0 1
C  -3.839769   0.210140   0.044644
C  -2.719584  -0.488339   0.004595
C  -1.379471   0.088070   0.003934
C  -0.273343  -0.665550   0.047239
H  -4.806016  -0.273245   0.046080
H  -3.808876   1.303788   0.002966
H  -2.753559  -1.565828   0.009732
H  -1.258418   1.172241  -0.105370
H  -0.329803  -1.752195   0.134820
H   0.686343  -0.211688   0.020622

