%chk=/home/boittier/MDCM/nms_sampling/butadiene_geom.xyz.dir/butadiene_2384.chk
%nproc=8
%mem=16000MB
#p B2PLYPD3/Def2QZVP 

butadiene

0 1
C  -3.852120   0.243577  -0.027875
C  -2.740830  -0.500777   0.061032
C  -1.379604   0.031962   0.066118
C  -0.239136  -0.653501  -0.004555
H  -4.844880  -0.250485   0.288411
H  -3.854420   1.320097  -0.246407
H  -2.714092  -1.533992   0.147487
H  -1.289528   1.072670   0.122196
H  -0.197650  -1.657677  -0.098424
H   0.638463  -0.035059   0.046599
