%chk=/home/boittier/MDCM/nms_sampling/butadiene_geom.xyz.dir/butadiene_1090.chk
%nproc=8
%mem=16000MB
#p B2PLYPD3/Def2QZVP 

butadiene

0 1
C  -3.827417   0.228657   0.033917
C  -2.721616  -0.514727   0.015475
C  -1.404049   0.080762  -0.027286
C  -0.265165  -0.657418   0.055017
H  -4.808161  -0.195238   0.160321
H  -3.770078   1.311241   0.050366
H  -2.791051  -1.584937   0.042253
H  -1.312233   1.122567  -0.072797
H  -0.219040  -1.721373   0.024644
H   0.712399  -0.187002   0.211266
