%chk=/home/boittier/MDCM/nms_sampling/butadiene_geom.xyz.dir/butadiene_2370.chk
%nproc=8
%mem=16000MB
#p B2PLYPD3/Def2QZVP 

butadiene

0 1
C  -3.881233   0.196351   0.046200
C  -2.695432  -0.449476   0.022090
C  -1.365864   0.103306  -0.047805
C  -0.270472  -0.701474   0.050302
H  -4.737830  -0.296199   0.036910
H  -3.911827   1.284549  -0.053286
H  -2.683888  -1.520984   0.156443
H  -1.312792   1.092460   0.164687
H  -0.302153  -1.780733   0.034495
H   0.659110  -0.150235   0.198442
