%chk=/home/boittier/MDCM/nms_sampling/butadiene_geom.xyz.dir/butadiene_2498.chk
%nproc=8
%mem=16000MB
#p B2PLYPD3/Def2QZVP 

butadiene

0 1
C  -3.827827   0.250734  -0.033368
C  -2.704307  -0.533422   0.087069
C  -1.394685   0.028570   0.097769
C  -0.279244  -0.629339  -0.008930
H  -4.820452  -0.170556  -0.125475
H  -3.682074   1.355341  -0.126148
H  -2.749681  -1.599771   0.159604
H  -1.292448   1.146136   0.099491
H  -0.325067  -1.708924  -0.001138
H   0.533493  -0.074454  -0.368881
