%chk=/home/boittier/MDCM/nms_sampling/butadiene_geom.xyz.dir/butadiene_2682.chk
%nproc=8
%mem=16000MB
#p B2PLYPD3/Def2QZVP 

butadiene

0 1
C  -3.844777   0.254448  -0.036741
C  -2.748558  -0.559669   0.103516
C  -1.378284   0.030263   0.063957
C  -0.216755  -0.615772   0.000239
H  -4.849607  -0.136405  -0.287895
H  -3.770533   1.403699   0.112464
H  -2.900651  -1.666710   0.253032
H  -1.350091   1.188678   0.007839
H  -0.330419  -1.697519  -0.079875
H   0.659597  -0.068762  -0.232607

