%chk=/home/boittier/MDCM/nms_sampling/butadiene_geom.xyz.dir/butadiene_1394.chk
%nproc=8
%mem=16000MB
#p B2PLYPD3/Def2QZVP 

butadiene

0 1
C  -3.856736   0.208583  -0.013092
C  -2.722124  -0.487174   0.062604
C  -1.378853   0.100952   0.024870
C  -0.255370  -0.681599   0.012409
H  -4.792819  -0.276748   0.043048
H  -3.831417   1.299479  -0.022324
H  -2.738779  -1.520966   0.231341
H  -1.305806   1.183517   0.101380
H  -0.281763  -1.753371  -0.066615
H   0.689039  -0.207819   0.059854

