%chk=/home/boittier/MDCM/nms_sampling/butadiene_geom.xyz.dir/butadiene_391.chk
%nproc=8
%mem=16000MB
#p B2PLYPD3/Def2QZVP 

butadiene

0 1
C  -3.844166   0.226685  -0.005301
C  -2.721901  -0.495930   0.059243
C  -1.387929   0.066234   0.026902
C  -0.254443  -0.658693   0.012421
H  -4.803595  -0.232982   0.033760
H  -3.801938   1.289308  -0.039917
H  -2.775982  -1.573422   0.165017
H  -1.358636   1.150743   0.063495
H  -0.261836  -1.738677  -0.019027
H   0.685917  -0.165487   0.047766

