%chk=/home/boittier/MDCM/nms_sampling/butadiene_geom.xyz.dir/butadiene_477.chk
%nproc=8
%mem=16000MB
#p B2PLYPD3/Def2QZVP 

butadiene

0 1
C  -3.842602   0.213552   0.005188
C  -2.716549  -0.489016   0.048675
C  -1.375560   0.082553   0.010763
C  -0.267195  -0.661163   0.028064
H  -4.803666  -0.257796   0.084669
H  -3.820059   1.293076  -0.016364
H  -2.785499  -1.587876   0.083122
H  -1.349773   1.153252   0.020038
H  -0.382013  -1.743844   0.007857
H   0.739546  -0.213811   0.061635

