%chk=/home/boittier/MDCM/nms_sampling/butadiene_geom.xyz.dir/butadiene_1745.chk
%nproc=8
%mem=16000MB
#p B2PLYPD3/Def2QZVP 

butadiene

0 1
C  -3.824872   0.239094   0.028128
C  -2.723234  -0.547530   0.030745
C  -1.394020   0.064746   0.001287
C  -0.262008  -0.635269   0.036704
H  -4.848871  -0.108696   0.021462
H  -3.733034   1.333567  -0.089215
H  -2.813020  -1.586642   0.160591
H  -1.332147   1.139772   0.067117
H  -0.320454  -1.732548  -0.021585
H   0.684591  -0.137610   0.068117
