%chk=/home/boittier/MDCM/nms_sampling/butadiene_geom.xyz.dir/butadiene_1909.chk
%nproc=8
%mem=16000MB
#p B2PLYPD3/Def2QZVP 

butadiene

0 1
C  -3.853863   0.199425  -0.014819
C  -2.702818  -0.494774   0.061118
C  -1.370517   0.099962   0.060188
C  -0.281239  -0.664266  -0.016111
H  -4.847630  -0.232254   0.052208
H  -3.856383   1.315549  -0.152101
H  -2.769550  -1.546927   0.203090
H  -1.201889   1.199684   0.154137
H  -0.381638  -1.759835   0.052048
H   0.734254  -0.259454  -0.004953

