%chk=/home/boittier/MDCM/nms_sampling/butadiene_geom.xyz.dir/butadiene_104.chk
%nproc=8
%mem=16000MB
#p B2PLYPD3/Def2QZVP 

butadiene

0 1
C  -3.845258   0.209784  -0.002427
C  -2.711432  -0.489931   0.056116
C  -1.376957   0.077481   0.042524
C  -0.272227  -0.660057   0.002060
H  -4.839762  -0.222466   0.000537
H  -3.792238   1.292570  -0.048252
H  -2.785362  -1.563309   0.101691
H  -1.315117   1.178249   0.044266
H  -0.336608  -1.722045   0.100195
H   0.716821  -0.218217  -0.027817
