%chk=/home/boittier/MDCM/nms_sampling/butadiene_geom.xyz.dir/butadiene_1462.chk
%nproc=8
%mem=16000MB
#p B2PLYPD3/Def2QZVP 

butadiene

0 1
C  -3.844584   0.211522   0.049102
C  -2.719355  -0.489090   0.016583
C  -1.368168   0.092436  -0.014825
C  -0.271447  -0.671867   0.050240
H  -4.772609  -0.300840  -0.032044
H  -3.922858   1.318083   0.109874
H  -2.760577  -1.540879  -0.082676
H  -1.291049   1.189672  -0.190190
H  -0.344766  -1.778319   0.188087
H   0.712215  -0.200846   0.076686
