%chk=/home/boittier/MDCM/nms_sampling/butadiene_geom.xyz.dir/butadiene_1244.chk
%nproc=8
%mem=16000MB
#p B2PLYPD3/Def2QZVP 

butadiene

0 1
C  -3.849636   0.244169  -0.008297
C  -2.727464  -0.509148   0.059105
C  -1.391715   0.048271   0.067442
C  -0.237114  -0.645075  -0.012788
H  -4.807358  -0.269442   0.027082
H  -3.813658   1.311733  -0.138714
H  -2.808770  -1.557538   0.142083
H  -1.408987   1.112655   0.022208
H  -0.241705  -1.697825   0.034044
H   0.748551  -0.179713   0.006952
