%chk=/home/boittier/MDCM/nms_sampling/butadiene_geom.xyz.dir/butadiene_249.chk
%nproc=8
%mem=16000MB
#p B2PLYPD3/Def2QZVP 

butadiene

0 1
C  -3.842581   0.218690  -0.003731
C  -2.720997  -0.483925   0.055785
C  -1.376820   0.078635   0.034461
C  -0.266686  -0.665711   0.013702
H  -4.756952  -0.317470   0.093976
H  -3.844856   1.276963  -0.099247
H  -2.816207  -1.563873   0.103790
H  -1.322033   1.172960   0.049323
H  -0.315046  -1.740896  -0.012035
H   0.721296  -0.198255   0.023224

