%chk=/home/boittier/MDCM/nms_sampling/butadiene_geom.xyz.dir/butadiene_2751.chk
%nproc=8
%mem=16000MB
#p B2PLYPD3/Def2QZVP 

butadiene

0 1
C  -3.842475   0.194543   0.035797
C  -2.713225  -0.488662   0.011968
C  -1.397226   0.125380   0.000547
C  -0.265306  -0.688679   0.065666
H  -4.782374  -0.253203  -0.065360
H  -3.685644   1.348382   0.125894
H  -2.697508  -1.526550  -0.016051
H  -1.357938   1.146877  -0.058965
H  -0.386521  -1.737703   0.199032
H   0.715715  -0.263392  -0.258595

