%chk=/home/boittier/MDCM/nms_sampling/butadiene_geom.xyz.dir/butadiene_2269.chk
%nproc=8
%mem=16000MB
#p B2PLYPD3/Def2QZVP 

butadiene

0 1
C  -3.894608   0.187900   0.093036
C  -2.710403  -0.447313  -0.029938
C  -1.348530   0.120027  -0.067857
C  -0.261961  -0.707844   0.095625
H  -4.739187  -0.335038   0.077871
H  -3.910128   1.237578   0.070968
H  -2.773752  -1.565882  -0.051502
H  -1.200449   1.185868  -0.222813
H  -0.289450  -1.774706   0.073396
H   0.650953  -0.155594   0.259298

