%chk=/home/boittier/MDCM/nms_sampling/butadiene_geom.xyz.dir/butadiene_2148.chk
%nproc=8
%mem=16000MB
#p B2PLYPD3/Def2QZVP 

butadiene

0 1
C  -3.853149   0.167144  -0.015328
C  -2.695734  -0.451837   0.054798
C  -1.378459   0.123411   0.094527
C  -0.270854  -0.688123  -0.016573
H  -4.867070  -0.225034   0.037382
H  -3.813896   1.268148  -0.106809
H  -2.753754  -1.538151   0.112386
H  -1.305740   1.250702  -0.097973
H  -0.450912  -1.822249   0.040926
H   0.724252  -0.311442  -0.061094
