%chk=/home/boittier/MDCM/nms_sampling/butadiene_geom.xyz.dir/butadiene_938.chk
%nproc=8
%mem=16000MB
#p B2PLYPD3/Def2QZVP 

butadiene

0 1
C  -3.846034   0.217494   0.003726
C  -2.708145  -0.482314   0.048967
C  -1.378791   0.074967   0.032274
C  -0.268083  -0.663617   0.010007
H  -4.796366  -0.296332   0.012390
H  -3.849727   1.289112  -0.027524
H  -2.795408  -1.557436   0.128648
H  -1.337145   1.139486   0.008328
H  -0.351075  -1.737448   0.051968
H   0.718443  -0.202039   0.039374
