%chk=/home/boittier/MDCM/nms_sampling/butadiene_geom.xyz.dir/butadiene_1792.chk
%nproc=8
%mem=16000MB
#p B2PLYPD3/Def2QZVP 

butadiene

0 1
C  -3.829809   0.235639  -0.006303
C  -2.712919  -0.514917   0.053204
C  -1.396539   0.049015   0.051721
C  -0.268590  -0.648070  -0.007692
H  -4.845634  -0.189330   0.027334
H  -3.683630   1.327202  -0.113497
H  -2.791312  -1.569959   0.209813
H  -1.363196   1.124961   0.107130
H  -0.280992  -1.690193   0.042179
H   0.645745  -0.096084   0.017637
