%chk=/home/boittier/MDCM/nms_sampling/butadiene_geom.xyz.dir/butadiene_308.chk
%nproc=8
%mem=16000MB
#p B2PLYPD3/Def2QZVP 

butadiene

0 1
C  -3.834572   0.229257  -0.002317
C  -2.722222  -0.517356   0.063913
C  -1.385816   0.066694   0.037528
C  -0.266593  -0.646318   0.005938
H  -4.841141  -0.188318  -0.000096
H  -3.729142   1.319341  -0.051700
H  -2.816623  -1.609165   0.058296
H  -1.325781   1.151480   0.011697
H  -0.271155  -1.739253   0.065235
H   0.677320  -0.145965  -0.003708

