%chk=/home/boittier/MDCM/nms_sampling/butadiene_geom.xyz.dir/butadiene_685.chk
%nproc=8
%mem=16000MB
#p B2PLYPD3/Def2QZVP 

butadiene

0 1
C  -3.837133   0.223363   0.020475
C  -2.710343  -0.495992   0.033857
C  -1.386275   0.081783  -0.003538
C  -0.271223  -0.664048   0.041283
H  -4.767037  -0.263468   0.017164
H  -3.855766   1.292260   0.088905
H  -2.754125  -1.587015   0.014066
H  -1.311768   1.152616  -0.028889
H  -0.362994  -1.744898   0.139644
H   0.691809  -0.197118  -0.013090

