%chk=/home/boittier/MDCM/nms_sampling/butadiene_geom.xyz.dir/butadiene_2816.chk
%nproc=8
%mem=16000MB
#p B2PLYPD3/Def2QZVP 

butadiene

0 1
C  -3.848542   0.245563   0.084014
C  -2.725965  -0.520173  -0.030579
C  -1.387392   0.055058  -0.076024
C  -0.250827  -0.660924   0.075583
H  -4.840817  -0.257095  -0.005123
H  -3.833470   1.374178   0.252295
H  -2.680194  -1.548500  -0.014514
H  -1.284847   1.182024  -0.117845
H  -0.185167  -1.769808   0.339218
H   0.570812  -0.039568   0.214618

