%chk=/home/boittier/MDCM/nms_sampling/butadiene_geom.xyz.dir/butadiene_1522.chk
%nproc=8
%mem=16000MB
#p B2PLYPD3/Def2QZVP 

butadiene

0 1
C  -3.829523   0.227165   0.036427
C  -2.712754  -0.518237   0.015348
C  -1.388776   0.075696  -0.032544
C  -0.278366  -0.652353   0.065795
H  -4.829420  -0.232090   0.149841
H  -3.745347   1.338625   0.088233
H  -2.750499  -1.570375  -0.040971
H  -1.267915   1.179286  -0.099587
H  -0.346997  -1.768827   0.071354
H   0.639517  -0.150798   0.129320
