%chk=/home/boittier/MDCM/nms_sampling/butadiene_geom.xyz.dir/butadiene_515.chk
%nproc=8
%mem=16000MB
#p B2PLYPD3/Def2QZVP 

butadiene

0 1
C  -3.853684   0.230349   0.040469
C  -2.729035  -0.510264   0.012201
C  -1.379900   0.062520  -0.005415
C  -0.252490  -0.646330   0.046829
H  -4.834468  -0.222839   0.037925
H  -3.766541   1.299443   0.009008
H  -2.786228  -1.579119   0.017166
H  -1.284401   1.136559  -0.027062
H  -0.263739  -1.728550   0.153709
H   0.705632  -0.158344   0.005337
