%chk=/home/boittier/MDCM/nms_sampling/butadiene_geom.xyz.dir/butadiene_881.chk
%nproc=8
%mem=16000MB
#p B2PLYPD3/Def2QZVP 

butadiene

0 1
C  -3.829629   0.238564   0.033103
C  -2.727192  -0.519314   0.021462
C  -1.386801   0.057244  -0.007902
C  -0.261746  -0.641062   0.053290
H  -4.794180  -0.213564   0.072050
H  -3.788583   1.302891  -0.008353
H  -2.810043  -1.601147   0.065079
H  -1.332699   1.151181  -0.059005
H  -0.299596  -1.733914  -0.010124
H   0.678188  -0.156655   0.078025
