%chk=/home/boittier/MDCM/nms_sampling/butadiene_geom.xyz.dir/butadiene_1115.chk
%nproc=8
%mem=16000MB
#p B2PLYPD3/Def2QZVP 

butadiene

0 1
C  -3.827222   0.222745   0.041566
C  -2.704567  -0.490942  -0.006066
C  -1.391491   0.087644  -0.010352
C  -0.288660  -0.662937   0.063897
H  -4.750371  -0.348712   0.078036
H  -3.807933   1.288707   0.051967
H  -2.756291  -1.572312   0.137457
H  -1.262010   1.147184  -0.048392
H  -0.392929  -1.739289   0.041178
H   0.702901  -0.246936   0.015242

