%chk=/home/boittier/MDCM/nms_sampling/butadiene_geom.xyz.dir/butadiene_297.chk
%nproc=8
%mem=16000MB
#p B2PLYPD3/Def2QZVP 

butadiene

0 1
C  -3.828663   0.240124   0.010380
C  -2.718774  -0.518556   0.044848
C  -1.398942   0.061724   0.043320
C  -0.266897  -0.647567   0.017076
H  -4.827874  -0.215961  -0.024442
H  -3.763812   1.310112  -0.063718
H  -2.778961  -1.610064   0.094622
H  -1.320794   1.142270  -0.040479
H  -0.236899  -1.698857   0.033555
H   0.683208  -0.176808  -0.052771
