%chk=/home/boittier/MDCM/nms_sampling/butadiene_geom.xyz.dir/butadiene_1549.chk
%nproc=8
%mem=16000MB
#p B2PLYPD3/Def2QZVP 

butadiene

0 1
C  -3.833511   0.233064   0.044967
C  -2.742134  -0.523796   0.004569
C  -1.392634   0.067087  -0.004770
C  -0.251690  -0.645058   0.046932
H  -4.829035  -0.166986   0.067887
H  -3.690916   1.345849   0.080471
H  -2.747935  -1.608353  -0.114961
H  -1.384837   1.113673  -0.131653
H  -0.242305  -1.734063   0.283344
H   0.730913  -0.144002   0.001725

