%chk=/home/boittier/MDCM/nms_sampling/butadiene_geom.xyz.dir/butadiene_2403.chk
%nproc=8
%mem=16000MB
#p B2PLYPD3/Def2QZVP 

butadiene

0 1
C  -3.868502   0.209016  -0.047331
C  -2.710859  -0.448935   0.103603
C  -1.376816   0.067957   0.085404
C  -0.279543  -0.675401  -0.010705
H  -4.810712  -0.352117  -0.093946
H  -3.909566   1.262076  -0.107811
H  -2.630903  -1.479471   0.172241
H  -1.207217   1.160557   0.191630
H  -0.155146  -1.790983  -0.018623
H   0.728473  -0.206103  -0.347890
