%chk=/home/boittier/MDCM/nms_sampling/butadiene_geom.xyz.dir/butadiene_1716.chk
%nproc=8
%mem=16000MB
#p B2PLYPD3/Def2QZVP 

butadiene

0 1
C  -3.843464   0.211955   0.054215
C  -2.714727  -0.481579  -0.014642
C  -1.385530   0.088799  -0.014731
C  -0.269577  -0.660896   0.053491
H  -4.785737  -0.259674   0.184861
H  -3.864963   1.264668  -0.007545
H  -2.713286  -1.581650  -0.028044
H  -1.308858   1.164936  -0.083464
H  -0.334419  -1.759242   0.190585
H   0.752261  -0.315677   0.126229

