%chk=/home/boittier/MDCM/nms_sampling/butadiene_geom.xyz.dir/butadiene_602.chk
%nproc=8
%mem=16000MB
#p B2PLYPD3/Def2QZVP 

butadiene

0 1
C  -3.849568   0.218598  -0.001968
C  -2.724498  -0.493082   0.049383
C  -1.374516   0.086854   0.048073
C  -0.256794  -0.663424   0.007709
H  -4.814469  -0.292108  -0.014572
H  -3.862336   1.283543  -0.007291
H  -2.799379  -1.573021   0.117811
H  -1.332366   1.187008  -0.012593
H  -0.294051  -1.738879   0.083711
H   0.751048  -0.251505  -0.064596
