%chk=/home/boittier/MDCM/nms_sampling/butadiene_geom.xyz.dir/butadiene_1573.chk
%nproc=8
%mem=16000MB
#p B2PLYPD3/Def2QZVP 

butadiene

0 1
C  -3.857667   0.202968  -0.007536
C  -2.715740  -0.459600   0.084750
C  -1.375555   0.080073   0.027495
C  -0.264396  -0.675685   0.016878
H  -4.739888  -0.321156  -0.113987
H  -3.826825   1.296290  -0.036776
H  -2.793313  -1.531032   0.077175
H  -1.301946   1.122185   0.075432
H  -0.292717  -1.749694  -0.005117
H   0.690631  -0.179060  -0.113384
