%chk=/home/boittier/MDCM/nms_sampling/butadiene_geom.xyz.dir/butadiene_2191.chk
%nproc=8
%mem=16000MB
#p B2PLYPD3/Def2QZVP 

butadiene

0 1
C  -3.848662   0.258850  -0.004105
C  -2.731054  -0.548073   0.087108
C  -1.398074   0.038514   0.076793
C  -0.254967  -0.628086  -0.026948
H  -4.894638  -0.158238  -0.319656
H  -3.614338   1.372949  -0.074995
H  -2.616071  -1.572989   0.182702
H  -1.374078   1.133362  -0.012413
H  -0.177948  -1.762950   0.058308
H   0.678229  -0.102712  -0.093423

