%chk=/home/boittier/MDCM/nms_sampling/butadiene_geom.xyz.dir/butadiene_2426.chk
%nproc=8
%mem=16000MB
#p B2PLYPD3/Def2QZVP 

butadiene

0 1
C  -3.833227   0.195181   0.011342
C  -2.705726  -0.483287   0.059328
C  -1.378638   0.117014  -0.005126
C  -0.271269  -0.677353   0.055302
H  -4.850549  -0.259858   0.124967
H  -3.874355   1.295056  -0.158356
H  -2.740571  -1.524717   0.056383
H  -1.432446   1.157237   0.056072
H  -0.501654  -1.733907  -0.212282
H   0.838164  -0.340644   0.044838

