%chk=/home/boittier/MDCM/nms_sampling/butadiene_geom.xyz.dir/butadiene_2777.chk
%nproc=8
%mem=16000MB
#p B2PLYPD3/Def2QZVP 

butadiene

0 1
C  -3.852955   0.217701  -0.028206
C  -2.722330  -0.503947   0.112980
C  -1.365885   0.084343   0.040856
C  -0.245159  -0.654815   0.004191
H  -4.859333  -0.259360   0.029863
H  -4.044321   1.334133  -0.244512
H  -2.801441  -1.534034   0.112295
H  -1.340062   1.198489   0.149275
H  -0.325517  -1.779946  -0.239480
H   0.787370  -0.288323   0.017173
