%chk=/home/boittier/MDCM/nms_sampling/butadiene_geom.xyz.dir/butadiene_1958.chk
%nproc=8
%mem=16000MB
#p B2PLYPD3/Def2QZVP 

butadiene

0 1
C  -3.854389   0.195683   0.060772
C  -2.717049  -0.442808  -0.020382
C  -1.377531   0.088461  -0.092196
C  -0.259608  -0.675678   0.090559
H  -4.728635  -0.447838   0.206776
H  -3.970357   1.248178   0.197960
H  -2.895593  -1.525105   0.043517
H  -1.191966   1.236184   0.022762
H  -0.326166  -1.800464   0.162005
H   0.796443  -0.262506   0.255375
