%chk=/home/boittier/MDCM/nms_sampling/butadiene_geom.xyz.dir/butadiene_1485.chk
%nproc=8
%mem=16000MB
#p B2PLYPD3/Def2QZVP 

butadiene

0 1
C  -3.819505   0.233137  -0.007807
C  -2.707444  -0.512561   0.066460
C  -1.404444   0.059605   0.034675
C  -0.276944  -0.645870  -0.005448
H  -4.847741  -0.199245  -0.029293
H  -3.733008   1.314394  -0.055177
H  -2.826900  -1.631259   0.228864
H  -1.339669   1.165765   0.094513
H  -0.261876  -1.710073  -0.006029
H   0.697446  -0.175017   0.096408

