%chk=/home/boittier/MDCM/nms_sampling/butadiene_geom.xyz.dir/butadiene_2592.chk
%nproc=8
%mem=16000MB
#p B2PLYPD3/Def2QZVP 

butadiene

0 1
C  -3.815231   0.234653  -0.033864
C  -2.725789  -0.534462   0.106760
C  -1.409607   0.075631   0.068983
C  -0.260455  -0.628668  -0.015520
H  -4.892600  -0.231403  -0.243825
H  -3.748820   1.347773   0.001403
H  -2.812121  -1.642451   0.253262
H  -1.230912   1.140571   0.040453
H  -0.361298  -1.736202  -0.090272
H   0.787888  -0.257036  -0.117687
