%chk=/home/boittier/MDCM/nms_sampling/butadiene_geom.xyz.dir/butadiene_1255.chk
%nproc=8
%mem=16000MB
#p B2PLYPD3/Def2QZVP 

butadiene

0 1
C  -3.828942   0.235026   0.059757
C  -2.719680  -0.496110   0.006160
C  -1.397364   0.058010  -0.020359
C  -0.264281  -0.645451   0.059391
H  -4.769686  -0.309766  -0.048071
H  -3.776438   1.302850   0.039018
H  -2.781480  -1.602779   0.005987
H  -1.334906   1.117183  -0.130029
H  -0.346016  -1.753768   0.107906
H   0.724745  -0.180767   0.071771

