%chk=/home/boittier/MDCM/nms_sampling/butadiene_geom.xyz.dir/butadiene_1783.chk
%nproc=8
%mem=16000MB
#p B2PLYPD3/Def2QZVP 

butadiene

0 1
C  -3.853998   0.208628  -0.029005
C  -2.726080  -0.472379   0.089449
C  -1.364841   0.077115   0.052242
C  -0.270407  -0.668577  -0.007930
H  -4.740861  -0.359406  -0.106052
H  -3.886997   1.310347   0.050518
H  -2.770461  -1.534356   0.176122
H  -1.216662   1.202165   0.019996
H  -0.313889  -1.747814   0.000338
H   0.701141  -0.196871  -0.044797
