%chk=/home/boittier/MDCM/nms_sampling/butadiene_geom.xyz.dir/butadiene_726.chk
%nproc=8
%mem=16000MB
#p B2PLYPD3/Def2QZVP 

butadiene

0 1
C  -3.844354   0.236946   0.004716
C  -2.725908  -0.508536   0.040832
C  -1.382063   0.061163   0.032491
C  -0.250407  -0.649815   0.011937
H  -4.789462  -0.250050   0.054734
H  -3.861012   1.311359  -0.050056
H  -2.804724  -1.612907   0.155107
H  -1.334820   1.146705   0.039869
H  -0.284387  -1.747220   0.048350
H   0.691752  -0.146999   0.036265
