%chk=/home/boittier/MDCM/nms_sampling/butadiene_geom.xyz.dir/butadiene_1104.chk
%nproc=8
%mem=16000MB
#p B2PLYPD3/Def2QZVP 

butadiene

0 1
C  -3.842825   0.241613   0.030123
C  -2.720652  -0.519949   0.028272
C  -1.387871   0.040006   0.009326
C  -0.254022  -0.630885   0.028144
H  -4.807855  -0.195439  -0.031420
H  -3.854791   1.323859   0.093669
H  -2.856712  -1.598347  -0.004293
H  -1.272182   1.125032  -0.155040
H  -0.255969  -1.728501   0.171576
H   0.701555  -0.133617   0.077184

