%chk=/home/boittier/MDCM/nms_sampling/butadiene_geom.xyz.dir/butadiene_2010.chk
%nproc=8
%mem=16000MB
#p B2PLYPD3/Def2QZVP 

butadiene

0 1
C  -3.821388   0.233248   0.051406
C  -2.710220  -0.496032  -0.009489
C  -1.404734   0.068790  -0.060979
C  -0.285796  -0.654765   0.086286
H  -4.752835  -0.290496   0.013768
H  -3.590757   1.255477   0.435412
H  -2.784600  -1.614856  -0.087606
H  -1.357721   1.134062  -0.263553
H  -0.305453  -1.711819   0.286655
H   0.647260  -0.190459   0.074830
