%chk=/home/boittier/MDCM/nms_sampling/butadiene_geom.xyz.dir/butadiene_1205.chk
%nproc=8
%mem=16000MB
#p B2PLYPD3/Def2QZVP 

butadiene

0 1
C  -3.815810   0.251059   0.049364
C  -2.719178  -0.536513  -0.010072
C  -1.392553   0.056395  -0.004426
C  -0.271142  -0.638664   0.067998
H  -4.770296  -0.201414  -0.013082
H  -3.807973   1.315521   0.120247
H  -2.797066  -1.591291   0.042721
H  -1.369414   1.126361  -0.128934
H  -0.336270  -1.745106   0.156786
H   0.652019  -0.129733  -0.109458
