%chk=/home/boittier/MDCM/nms_sampling/butadiene_geom.xyz.dir/butadiene_662.chk
%nproc=8
%mem=16000MB
#p B2PLYPD3/Def2QZVP 

butadiene

0 1
C  -3.855159   0.210754  -0.002964
C  -2.723471  -0.480964   0.052078
C  -1.370701   0.074371   0.026595
C  -0.255290  -0.657605   0.013912
H  -4.811138  -0.285691   0.042225
H  -3.820934   1.295538  -0.020440
H  -2.804779  -1.567959   0.173044
H  -1.322110   1.179783   0.050429
H  -0.329805  -1.750988  -0.000505
H   0.724529  -0.230129   0.049013
