%chk=/home/boittier/MDCM/nms_sampling/butadiene_geom.xyz.dir/butadiene_1230.chk
%nproc=8
%mem=16000MB
#p B2PLYPD3/Def2QZVP 

butadiene

0 1
C  -3.831696   0.246554   0.058492
C  -2.717682  -0.520011  -0.013963
C  -1.389310   0.052333  -0.001898
C  -0.272898  -0.643101   0.057845
H  -4.828266  -0.206979  -0.045647
H  -3.769870   1.329306   0.083487
H  -2.698359  -1.624428   0.036605
H  -1.361159   1.109309  -0.122728
H  -0.272343  -1.751756   0.215171
H   0.656082  -0.117275  -0.070835
