%chk=/home/boittier/MDCM/nms_sampling/butadiene_geom.xyz.dir/butadiene_1860.chk
%nproc=8
%mem=16000MB
#p B2PLYPD3/Def2QZVP 

butadiene

0 1
C  -3.838151   0.214170   0.043102
C  -2.706038  -0.507206   0.010507
C  -1.381357   0.099879  -0.012110
C  -0.277557  -0.665734   0.044935
H  -4.879236  -0.222056   0.008230
H  -3.838624   1.291040   0.094149
H  -2.740593  -1.599716  -0.043682
H  -1.259408   1.226253  -0.059594
H  -0.376462  -1.753884   0.269826
H   0.708684  -0.239040  -0.000725
