%chk=/home/boittier/MDCM/nms_sampling/butadiene_geom.xyz.dir/butadiene_352.chk
%nproc=8
%mem=16000MB
#p B2PLYPD3/Def2QZVP 

butadiene

0 1
C  -3.841185   0.227643   0.008190
C  -2.736801  -0.509495   0.051989
C  -1.383252   0.064965   0.030936
C  -0.249296  -0.650324   0.021696
H  -4.815951  -0.213797  -0.017767
H  -3.766734   1.320450  -0.035080
H  -2.817823  -1.599153   0.085016
H  -1.334344   1.146659  -0.045897
H  -0.246157  -1.696178  -0.000712
H   0.699953  -0.167847  -0.004097
