%chk=/home/boittier/MDCM/nms_sampling/butadiene_geom.xyz.dir/butadiene_889.chk
%nproc=8
%mem=16000MB
#p B2PLYPD3/Def2QZVP 

butadiene

0 1
C  -3.834661   0.217588   0.037176
C  -2.705224  -0.487383   0.015073
C  -1.394482   0.083018   0.006100
C  -0.277133  -0.668888   0.044735
H  -4.819607  -0.264487   0.012350
H  -3.841453   1.287055   0.007112
H  -2.708880  -1.568480   0.013378
H  -1.295708   1.189901  -0.053175
H  -0.315663  -1.744477   0.146099
H   0.704203  -0.227075  -0.045679

