%chk=/home/boittier/MDCM/nms_sampling/butadiene_geom.xyz.dir/butadiene_2141.chk
%nproc=8
%mem=16000MB
#p B2PLYPD3/Def2QZVP 

butadiene

0 1
C  -3.879208   0.202513  -0.026788
C  -2.702034  -0.477311   0.059981
C  -1.365977   0.094607   0.079563
C  -0.244877  -0.655715  -0.002404
H  -4.868939  -0.291879   0.030895
H  -3.974843   1.288575  -0.229900
H  -2.763003  -1.543293   0.444334
H  -1.240799   1.104741   0.211519
H  -0.441522  -1.750315  -0.238842
H   0.770487  -0.373496  -0.107223

