%chk=/home/boittier/MDCM/nms_sampling/butadiene_geom.xyz.dir/butadiene_2098.chk
%nproc=8
%mem=16000MB
#p B2PLYPD3/Def2QZVP 

butadiene

0 1
C  -3.806987   0.208389  -0.001646
C  -2.690647  -0.485320   0.077986
C  -1.425953   0.071897   0.074277
C  -0.312178  -0.664906  -0.018748
H  -4.777254  -0.239669  -0.252822
H  -3.744494   1.313164  -0.148380
H  -2.675187  -1.473290   0.213580
H  -1.166382   1.193075   0.066384
H  -0.302425  -1.686129   0.020531
H   0.704613  -0.250255  -0.127197
