%chk=/home/boittier/MDCM/nms_sampling/butadiene_geom.xyz.dir/butadiene_2539.chk
%nproc=8
%mem=16000MB
#p B2PLYPD3/Def2QZVP 

butadiene

0 1
C  -3.869333   0.210664   0.004566
C  -2.726430  -0.465550   0.076211
C  -1.380285   0.095503  -0.000366
C  -0.247184  -0.695333   0.035377
H  -4.734192  -0.322865   0.097899
H  -3.910874   1.281693  -0.245125
H  -2.711920  -1.536960   0.091484
H  -1.209982   1.118852   0.180787
H  -0.209005  -1.747514  -0.197414
H   0.635321  -0.115771   0.069943

