%chk=/home/boittier/MDCM/nms_sampling/butadiene_geom.xyz.dir/butadiene_1919.chk
%nproc=8
%mem=16000MB
#p B2PLYPD3/Def2QZVP 

butadiene

0 1
C  -3.828681   0.235705  -0.005267
C  -2.706011  -0.506813   0.061250
C  -1.405932   0.055542   0.026058
C  -0.279465  -0.649824   0.020766
H  -4.819413  -0.227328  -0.002368
H  -3.725529   1.324003  -0.069213
H  -2.701289  -1.586074   0.248271
H  -1.324480   1.176733   0.086918
H  -0.247573  -1.738645  -0.137855
H   0.655172  -0.178148   0.026523
