%chk=/home/boittier/MDCM/nms_sampling/butadiene_geom.xyz.dir/butadiene_1970.chk
%nproc=8
%mem=16000MB
#p B2PLYPD3/Def2QZVP 

butadiene

0 1
C  -3.854539   0.213803  -0.053033
C  -2.745479  -0.511538   0.143476
C  -1.378185   0.092266   0.069362
C  -0.235479  -0.668897  -0.054962
H  -4.923213  -0.149629  -0.004819
H  -3.796813   1.324230  -0.234592
H  -2.817470  -1.595793   0.100666
H  -1.320277   1.138852   0.190562
H  -0.134972  -1.642061  -0.061378
H   0.747539  -0.190734   0.141255
