%chk=/home/boittier/MDCM/nms_sampling/butadiene_geom.xyz.dir/butadiene_2634.chk
%nproc=8
%mem=16000MB
#p B2PLYPD3/Def2QZVP 

butadiene

0 1
C  -3.866856   0.184672   0.043317
C  -2.709617  -0.454386  -0.038278
C  -1.347874   0.088745  -0.005439
C  -0.280231  -0.678985   0.069390
H  -4.919815  -0.235739   0.288456
H  -3.889891   1.237347   0.168034
H  -2.870381  -1.527645   0.021865
H  -1.232791   1.173073  -0.260011
H  -0.202996  -1.779905   0.137742
H   0.716143  -0.146855   0.124451

