%chk=/home/boittier/MDCM/nms_sampling/butadiene_geom.xyz.dir/butadiene_2057.chk
%nproc=8
%mem=16000MB
#p B2PLYPD3/Def2QZVP 

butadiene

0 1
C  -3.853978   0.261000  -0.020743
C  -2.719286  -0.543010   0.089016
C  -1.394678   0.018546   0.066525
C  -0.249624  -0.630413   0.023170
H  -4.850406  -0.064605  -0.051334
H  -3.852808   1.344046  -0.064177
H  -2.783440  -1.615825  -0.088544
H  -1.280476   1.118277  -0.062691
H  -0.056020  -1.682859  -0.005074
H   0.626790  -0.034430  -0.333375
