%chk=/home/boittier/MDCM/nms_sampling/butadiene_geom.xyz.dir/butadiene_181.chk
%nproc=8
%mem=16000MB
#p B2PLYPD3/Def2QZVP 

butadiene

0 1
C  -3.834787   0.231872   0.021145
C  -2.729304  -0.514718   0.032192
C  -1.383809   0.066023   0.012942
C  -0.260534  -0.644901   0.043276
H  -4.785440  -0.238277   0.051393
H  -3.762797   1.322686   0.005484
H  -2.827949  -1.601002  -0.017807
H  -1.361003   1.161633  -0.064954
H  -0.291229  -1.734744   0.086437
H   0.720100  -0.187503  -0.060908

