%chk=/home/boittier/MDCM/nms_sampling/butadiene_geom.xyz.dir/butadiene_933.chk
%nproc=8
%mem=16000MB
#p B2PLYPD3/Def2QZVP 

butadiene

0 1
C  -3.845685   0.234448   0.027989
C  -2.729496  -0.511120   0.019340
C  -1.391353   0.050365  -0.013574
C  -0.247007  -0.640039   0.051775
H  -4.862846  -0.207694   0.151084
H  -3.784107   1.316419   0.026613
H  -2.765691  -1.587799   0.018036
H  -1.317344   1.160450  -0.045694
H  -0.234499  -1.716477   0.057613
H   0.725051  -0.187756   0.101942

