%chk=/home/boittier/MDCM/nms_sampling/butadiene_geom.xyz.dir/butadiene_830.chk
%nproc=8
%mem=16000MB
#p B2PLYPD3/Def2QZVP 

butadiene

0 1
C  -3.845674   0.217767   0.006438
C  -2.711392  -0.495629   0.054317
C  -1.385079   0.089375   0.025839
C  -0.272356  -0.666439   0.015956
H  -4.809150  -0.257955   0.010909
H  -3.818750   1.293545  -0.026689
H  -2.738383  -1.583566   0.067343
H  -1.280684   1.169813  -0.031017
H  -0.311881  -1.725407   0.035259
H   0.718667  -0.235443   0.052069
