%chk=/home/boittier/MDCM/nms_sampling/butadiene_geom.xyz.dir/butadiene_19.chk
%nproc=8
%mem=16000MB
#p B2PLYPD3/Def2QZVP 

butadiene

0 1
C  -3.824755   0.220829   0.017168
C  -2.715362  -0.497724   0.040107
C  -1.388307   0.079701   0.035952
C  -0.277852  -0.659965   0.018026
H  -4.781649  -0.272481  -0.037567
H  -3.808331   1.305957  -0.042819
H  -2.818631  -1.568933   0.076039
H  -1.327126   1.145616  -0.050974
H  -0.318337  -1.718146   0.077360
H   0.715484  -0.211611  -0.028298

