%chk=/home/boittier/MDCM/nms_sampling/butadiene_geom.xyz.dir/butadiene_119.chk
%nproc=8
%mem=16000MB
#p B2PLYPD3/Def2QZVP 

butadiene

0 1
C  -3.844103   0.231830   0.033424
C  -2.728668  -0.511011   0.018961
C  -1.391869   0.062988   0.010238
C  -0.248536  -0.650367   0.036401
H  -4.819831  -0.203672   0.042756
H  -3.799621   1.319401   0.013041
H  -2.801723  -1.601793  -0.010132
H  -1.314112   1.147394  -0.099197
H  -0.212058  -1.709098   0.149359
H   0.698863  -0.170180   0.028231
