%chk=/home/boittier/MDCM/nms_sampling/butadiene_geom.xyz.dir/butadiene_964.chk
%nproc=8
%mem=16000MB
#p B2PLYPD3/Def2QZVP 

butadiene

0 1
C  -3.826994   0.241216  -0.004512
C  -2.736388  -0.522498   0.070659
C  -1.398882   0.047882   0.035627
C  -0.257359  -0.643933   0.001049
H  -4.827120  -0.185091  -0.045756
H  -3.792087   1.356930  -0.024908
H  -2.776752  -1.590105   0.113117
H  -1.289965   1.127417  -0.011009
H  -0.142079  -1.693068   0.014661
H   0.668221  -0.113044   0.067332

