%chk=/home/boittier/MDCM/nms_sampling/butadiene_geom.xyz.dir/butadiene_1697.chk
%nproc=8
%mem=16000MB
#p B2PLYPD3/Def2QZVP 

butadiene

0 1
C  -3.846880   0.215307  -0.012657
C  -2.715147  -0.489860   0.054308
C  -1.366109   0.076944   0.066463
C  -0.271229  -0.652173  -0.010733
H  -4.809270  -0.288309   0.124184
H  -3.845964   1.266586  -0.165458
H  -2.757754  -1.561436   0.175709
H  -1.305574   1.189605   0.031153
H  -0.448605  -1.745945  -0.029886
H   0.738962  -0.268040   0.071820
