%chk=/home/boittier/MDCM/nms_sampling/butadiene_geom.xyz.dir/butadiene_2337.chk
%nproc=8
%mem=16000MB
#p B2PLYPD3/Def2QZVP 

butadiene

0 1
C  -3.843212   0.187500   0.050330
C  -2.722712  -0.458508  -0.024703
C  -1.378925   0.120064  -0.007345
C  -0.261438  -0.688135   0.063790
H  -4.807667  -0.308057   0.201853
H  -3.827004   1.287656   0.061483
H  -2.708967  -1.585298   0.062719
H  -1.447602   1.202776  -0.208940
H  -0.416331  -1.757594   0.053293
H   0.860287  -0.335293   0.167268

