%chk=/home/boittier/MDCM/nms_sampling/butadiene_geom.xyz.dir/butadiene_1952.chk
%nproc=8
%mem=16000MB
#p B2PLYPD3/Def2QZVP 

butadiene

0 1
C  -3.790488   0.276590  -0.005468
C  -2.719681  -0.570856   0.071052
C  -1.422045   0.040585   0.024996
C  -0.300008  -0.620856   0.032936
H  -4.807784  -0.135313   0.003921
H  -3.706850   1.313943  -0.066042
H  -2.759833  -1.608320   0.165997
H  -1.289573   1.105383  -0.031577
H  -0.114348  -1.707037  -0.235251
H   0.678542  -0.117867   0.039623
