%chk=/home/boittier/MDCM/nms_sampling/butadiene_geom.xyz.dir/butadiene_2772.chk
%nproc=8
%mem=16000MB
#p B2PLYPD3/Def2QZVP 

butadiene

0 1
C  -3.886132   0.217803   0.099966
C  -2.723695  -0.486926  -0.014059
C  -1.369386   0.091446  -0.044764
C  -0.244982  -0.667775   0.084295
H  -4.793010  -0.334460  -0.102227
H  -3.964097   1.318430   0.043833
H  -2.746478  -1.629806  -0.220110
H  -1.206628   1.205700  -0.271976
H  -0.240995  -1.694785   0.234357
H   0.842158  -0.305015   0.052384

