%chk=/home/boittier/MDCM/nms_sampling/butadiene_geom.xyz.dir/butadiene_2749.chk
%nproc=8
%mem=16000MB
#p B2PLYPD3/Def2QZVP 

butadiene

0 1
C  -3.793642   0.242480  -0.035890
C  -2.701465  -0.530030   0.102384
C  -1.412734   0.070259   0.054970
C  -0.273649  -0.645995  -0.006129
H  -4.850308  -0.214497  -0.117299
H  -3.794867   1.315372   0.156768
H  -2.954021  -1.631211   0.047841
H  -1.400290   1.128084  -0.153214
H  -0.319840  -1.700322   0.013176
H   0.677810  -0.174828  -0.024007

