%chk=/home/boittier/MDCM/nms_sampling/butadiene_geom.xyz.dir/butadiene_263.chk
%nproc=8
%mem=16000MB
#p B2PLYPD3/Def2QZVP 

butadiene

0 1
C  -3.832348   0.229435   0.006676
C  -2.719688  -0.509935   0.050235
C  -1.394164   0.059280   0.043507
C  -0.263169  -0.643483   0.012262
H  -4.825388  -0.214855  -0.053079
H  -3.745425   1.329386  -0.051106
H  -2.817029  -1.606219   0.112822
H  -1.362675   1.156195  -0.008606
H  -0.283584  -1.705036   0.051238
H   0.739738  -0.202564  -0.064105
