%chk=/home/boittier/MDCM/nms_sampling/butadiene_geom.xyz.dir/butadiene_963.chk
%nproc=8
%mem=16000MB
#p B2PLYPD3/Def2QZVP 

butadiene

0 1
C  -3.828629   0.222608  -0.006753
C  -2.711064  -0.497891   0.061382
C  -1.394936   0.064022   0.048586
C  -0.276627  -0.651569  -0.006952
H  -4.837721  -0.242547  -0.022916
H  -3.668291   1.321551  -0.045097
H  -2.783793  -1.579774   0.100487
H  -1.350783   1.148603   0.067254
H  -0.309276  -1.758031   0.143635
H   0.667619  -0.149921  -0.048256

