%chk=/home/boittier/MDCM/nms_sampling/butadiene_geom.xyz.dir/butadiene_1373.chk
%nproc=8
%mem=16000MB
#p B2PLYPD3/Def2QZVP 

butadiene

0 1
C  -3.849678   0.228361  -0.004553
C  -2.736022  -0.521378   0.060439
C  -1.379720   0.051193   0.033365
C  -0.239869  -0.637822   0.028337
H  -4.859458  -0.167580  -0.016285
H  -3.756175   1.360141  -0.023726
H  -2.824094  -1.581153   0.069621
H  -1.288677   1.133373   0.050665
H  -0.297421  -1.725328   0.026162
H   0.678372  -0.097932  -0.179139

