%chk=/home/boittier/MDCM/nms_sampling/butadiene_geom.xyz.dir/butadiene_148.chk
%nproc=8
%mem=16000MB
#p B2PLYPD3/Def2QZVP 

butadiene

0 1
C  -3.847389   0.220397   0.042969
C  -2.706693  -0.486734   0.006753
C  -1.384648   0.073142   0.003451
C  -0.265690  -0.662461   0.045467
H  -4.803076  -0.278057   0.038193
H  -3.870095   1.294887   0.011086
H  -2.788952  -1.551253   0.028651
H  -1.342532   1.147377  -0.105294
H  -0.305171  -1.732452   0.120944
H   0.743407  -0.218675   0.040268

