%chk=/home/boittier/MDCM/nms_sampling/butadiene_geom.xyz.dir/butadiene_791.chk
%nproc=8
%mem=16000MB
#p B2PLYPD3/Def2QZVP 

butadiene

0 1
C  -3.834690   0.212786   0.006283
C  -2.708034  -0.485292   0.052484
C  -1.387426   0.083632   0.023885
C  -0.272627  -0.668509   0.012521
H  -4.792194  -0.252196   0.068168
H  -3.856178   1.298380  -0.086114
H  -2.768429  -1.540765   0.080466
H  -1.353959   1.152351   0.032268
H  -0.325112  -1.745669   0.032048
H   0.706790  -0.224264   0.086806

