%chk=/home/boittier/MDCM/nms_sampling/butadiene_geom.xyz.dir/butadiene_1879.chk
%nproc=8
%mem=16000MB
#p B2PLYPD3/Def2QZVP 

butadiene

0 1
C  -3.843554   0.202572   0.030580
C  -2.713673  -0.495290   0.003427
C  -1.369092   0.108476  -0.006847
C  -0.281865  -0.671507   0.053208
H  -4.823494  -0.242434   0.230363
H  -3.809245   1.279616  -0.001852
H  -2.709529  -1.553134   0.001534
H  -1.239190   1.210684  -0.031183
H  -0.416438  -1.773262   0.109259
H   0.670290  -0.244844   0.064682
