%chk=/home/boittier/MDCM/nms_sampling/butadiene_geom.xyz.dir/butadiene_1199.chk
%nproc=8
%mem=16000MB
#p B2PLYPD3/Def2QZVP 

butadiene

0 1
C  -3.825175   0.233944   0.045728
C  -2.716122  -0.527353  -0.009248
C  -1.385598   0.078998  -0.004411
C  -0.263549  -0.647455   0.044863
H  -4.839883  -0.180877   0.107196
H  -3.833745   1.297187   0.022260
H  -2.819193  -1.588168   0.048153
H  -1.414185   1.166053  -0.025449
H  -0.327659  -1.729052   0.215312
H   0.700381  -0.248866   0.043250

