%chk=/home/boittier/MDCM/nms_sampling/butadiene_geom.xyz.dir/butadiene_811.chk
%nproc=8
%mem=16000MB
#p B2PLYPD3/Def2QZVP 

butadiene

0 1
C  -3.832535   0.231178   0.037520
C  -2.724610  -0.516734   0.008985
C  -1.388360   0.071231  -0.014295
C  -0.266358  -0.644505   0.060682
H  -4.786519  -0.223658   0.094395
H  -3.780471   1.301804   0.027013
H  -2.780512  -1.589887   0.028775
H  -1.317145   1.153519  -0.022671
H  -0.334672  -1.733598   0.091770
H   0.734466  -0.215662  -0.002843
