%chk=/home/boittier/MDCM/nms_sampling/butadiene_geom.xyz.dir/butadiene_2516.chk
%nproc=8
%mem=16000MB
#p B2PLYPD3/Def2QZVP 

butadiene

0 1
C  -3.890956   0.188650  -0.020861
C  -2.705257  -0.443968   0.069915
C  -1.377237   0.103694   0.042334
C  -0.248870  -0.687505   0.014594
H  -4.748682  -0.330850  -0.097378
H  -3.914472   1.255962   0.136528
H  -2.714894  -1.467617   0.150073
H  -1.314281   1.171290  -0.020024
H  -0.294963  -1.789027   0.041941
H   0.831508  -0.329931  -0.147251
