%chk=/home/boittier/MDCM/nms_sampling/butadiene_geom.xyz.dir/butadiene_1322.chk
%nproc=8
%mem=16000MB
#p B2PLYPD3/Def2QZVP 

butadiene

0 1
C  -3.839809   0.212934   0.000509
C  -2.707723  -0.483193   0.057979
C  -1.380565   0.087497   0.037962
C  -0.273721  -0.667380   0.023513
H  -4.761101  -0.273778  -0.010390
H  -3.890891   1.300881  -0.037457
H  -2.707408  -1.561261   0.015451
H  -1.349171   1.140401   0.000294
H  -0.433674  -1.782442   0.067030
H   0.738542  -0.221593  -0.150856

