%chk=/home/boittier/MDCM/nms_sampling/butadiene_geom.xyz.dir/butadiene_1790.chk
%nproc=8
%mem=16000MB
#p B2PLYPD3/Def2QZVP 

butadiene

0 1
C  -3.837575   0.238971   0.050355
C  -2.715193  -0.516406   0.017345
C  -1.401630   0.036295  -0.034196
C  -0.254345  -0.641952   0.052538
H  -4.848806  -0.149952  -0.022337
H  -3.804276   1.349430   0.124538
H  -2.749718  -1.550662  -0.090314
H  -1.325926   1.122737  -0.077640
H  -0.229554  -1.715793   0.262480
H   0.655197  -0.095190   0.067435
