%chk=/home/boittier/MDCM/nms_sampling/butadiene_geom.xyz.dir/butadiene_1490.chk
%nproc=8
%mem=16000MB
#p B2PLYPD3/Def2QZVP 

butadiene

0 1
C  -3.828103   0.209925   0.064629
C  -2.708681  -0.486196  -0.004963
C  -1.388530   0.103164  -0.015142
C  -0.285543  -0.678148   0.066936
H  -4.722364  -0.338237   0.019616
H  -3.815420   1.306459   0.019314
H  -2.769541  -1.530417  -0.136508
H  -1.302613   1.189233  -0.137254
H  -0.379030  -1.748167   0.233281
H   0.705564  -0.246873  -0.058089
