%chk=/home/boittier/MDCM/nms_sampling/butadiene_geom.xyz.dir/butadiene_2020.chk
%nproc=8
%mem=16000MB
#p B2PLYPD3/Def2QZVP 

butadiene

0 1
C  -3.866313   0.275537   0.086468
C  -2.745700  -0.546845  -0.052399
C  -1.383280   0.009901  -0.036092
C  -0.195889  -0.608952   0.100341
H  -4.829688  -0.147735   0.014556
H  -3.854790   1.293972   0.182374
H  -2.811958  -1.632019  -0.046583
H  -1.443413   1.099157  -0.216319
H  -0.276803  -1.739904   0.260800
H   0.702532  -0.094356  -0.102347
