%chk=/home/boittier/MDCM/nms_sampling/butadiene_geom.xyz.dir/butadiene_2455.chk
%nproc=8
%mem=16000MB
#p B2PLYPD3/Def2QZVP 

butadiene

0 1
C  -3.866888   0.189805  -0.017975
C  -2.714765  -0.436109   0.079369
C  -1.378784   0.113561   0.032030
C  -0.249982  -0.701847   0.001816
H  -4.775827  -0.415714  -0.049432
H  -3.861827   1.275057  -0.104609
H  -2.716315  -1.499240   0.338934
H  -1.290866   1.120133   0.197077
H  -0.322289  -1.785628  -0.159091
H   0.665225  -0.237148   0.050834

