%chk=/home/boittier/MDCM/nms_sampling/butadiene_geom.xyz.dir/butadiene_601.chk
%nproc=8
%mem=16000MB
#p B2PLYPD3/Def2QZVP 

butadiene

0 1
C  -3.828923   0.235173   0.010010
C  -2.715883  -0.509401   0.033544
C  -1.394190   0.060320   0.026862
C  -0.269295  -0.645898   0.027803
H  -4.798702  -0.240194   0.067642
H  -3.742858   1.299228  -0.052261
H  -2.813257  -1.584197   0.146942
H  -1.361675   1.123226   0.025309
H  -0.297118  -1.731513   0.005362
H   0.699871  -0.169141  -0.012435

