%chk=/home/boittier/MDCM/nms_sampling/butadiene_geom.xyz.dir/butadiene_2705.chk
%nproc=8
%mem=16000MB
#p B2PLYPD3/Def2QZVP 

butadiene

0 1
C  -3.856343   0.206685  -0.036350
C  -2.712752  -0.453982   0.104440
C  -1.379763   0.100427   0.056223
C  -0.258675  -0.700895  -0.011977
H  -4.832227  -0.363995  -0.132342
H  -3.980512   1.236982   0.151076
H  -2.809319  -1.549700   0.072921
H  -1.268357   1.226500  -0.145702
H  -0.116730  -1.737271   0.009894
H   0.670121  -0.212825   0.009436

