%chk=/home/boittier/MDCM/nms_sampling/butadiene_geom.xyz.dir/butadiene_2800.chk
%nproc=8
%mem=16000MB
#p B2PLYPD3/Def2QZVP 

butadiene

0 1
C  -3.832692   0.195480   0.107684
C  -2.702456  -0.487136  -0.067042
C  -1.364868   0.135599  -0.041352
C  -0.285148  -0.678161   0.096112
H  -4.807899  -0.248825  -0.065110
H  -3.969400   1.232688   0.160060
H  -2.778770  -1.584084  -0.053482
H  -1.378916   1.249964  -0.194170
H  -0.467763  -1.875986   0.377334
H   0.773812  -0.347303  -0.102589
