%chk=/home/boittier/MDCM/nms_sampling/butadiene_geom.xyz.dir/butadiene_2864.chk
%nproc=8
%mem=16000MB
#p B2PLYPD3/Def2QZVP 

butadiene

0 1
C  -3.875797   0.194017   0.078270
C  -2.694797  -0.438072  -0.050492
C  -1.358788   0.093154  -0.047558
C  -0.282662  -0.708185   0.104452
H  -4.800614  -0.311008   0.131733
H  -3.865411   1.226469   0.093196
H  -2.689334  -1.461642   0.079505
H  -1.381868   1.155389  -0.094652
H  -0.254631  -1.756212   0.094118
H   0.684808  -0.128901   0.006421
