%chk=/home/boittier/MDCM/nms_sampling/butadiene_geom.xyz.dir/butadiene_1006.chk
%nproc=8
%mem=16000MB
#p B2PLYPD3/Def2QZVP 

butadiene

0 1
C  -3.818937   0.233331  -0.000219
C  -2.727587  -0.508438   0.069835
C  -1.400952   0.040669   0.031327
C  -0.265961  -0.638452   0.001489
H  -4.829799  -0.197945  -0.022487
H  -3.734039   1.335812  -0.189269
H  -2.763232  -1.549027   0.190153
H  -1.313847   1.119337   0.191942
H  -0.238755  -1.727272  -0.031392
H   0.638843  -0.129183   0.022936
