%chk=/home/boittier/MDCM/nms_sampling/butadiene_geom.xyz.dir/butadiene_2508.chk
%nproc=8
%mem=16000MB
#p B2PLYPD3/Def2QZVP 

butadiene

0 1
C  -3.849598   0.250492   0.021875
C  -2.748704  -0.519765   0.026522
C  -1.380949   0.055992  -0.005771
C  -0.247486  -0.656085   0.046495
H  -4.742203  -0.247358  -0.002786
H  -3.765974   1.338658   0.287633
H  -2.794674  -1.587282  -0.041810
H  -1.328984   1.062839  -0.282662
H  -0.055595  -1.734055   0.159861
H   0.601830  -0.024047   0.087533

