%chk=/home/boittier/MDCM/nms_sampling/butadiene_geom.xyz.dir/butadiene_1668.chk
%nproc=8
%mem=16000MB
#p B2PLYPD3/Def2QZVP 

butadiene

0 1
C  -3.834106   0.234001   0.008534
C  -2.729605  -0.518693   0.067283
C  -1.386423   0.058181   0.027221
C  -0.261345  -0.635808   0.025998
H  -4.808201  -0.206759  -0.084812
H  -3.712381   1.307630  -0.036901
H  -2.800586  -1.581352   0.005387
H  -1.394251   1.118874  -0.051974
H  -0.334058  -1.715996   0.007591
H   0.780171  -0.197157  -0.072746

