%chk=/home/boittier/MDCM/nms_sampling/butadiene_geom.xyz.dir/butadiene_1257.chk
%nproc=8
%mem=16000MB
#p B2PLYPD3/Def2QZVP 

butadiene

0 1
C  -3.837505   0.220761   0.020703
C  -2.698519  -0.496746   0.030882
C  -1.387337   0.079984   0.027487
C  -0.280050  -0.655668   0.018187
H  -4.753839  -0.253574   0.053337
H  -3.835837   1.300683  -0.024936
H  -2.767801  -1.595755  -0.016314
H  -1.313701   1.140021  -0.053644
H  -0.428030  -1.737206   0.188723
H   0.720175  -0.244555   0.004055
