%chk=/home/boittier/MDCM/nms_sampling/butadiene_geom.xyz.dir/butadiene_1465.chk
%nproc=8
%mem=16000MB
#p B2PLYPD3/Def2QZVP 

butadiene

0 1
C  -3.835606   0.205037   0.006724
C  -2.706685  -0.463184   0.031042
C  -1.386962   0.080408   0.041391
C  -0.275739  -0.666166   0.026019
H  -4.779918  -0.305858   0.126074
H  -3.862803   1.269200  -0.113548
H  -2.791189  -1.564114   0.163987
H  -1.318200   1.150738  -0.011435
H  -0.349413  -1.734786  -0.072718
H   0.741014  -0.277139   0.008855

