%chk=/home/boittier/MDCM/nms_sampling/butadiene_geom.xyz.dir/butadiene_2407.chk
%nproc=8
%mem=16000MB
#p B2PLYPD3/Def2QZVP 

butadiene

0 1
C  -3.828227   0.255208   0.039157
C  -2.741671  -0.572264   0.003905
C  -1.392167   0.062970   0.047759
C  -0.258295  -0.622034   0.017671
H  -4.927917  -0.037069  -0.113713
H  -3.704985   1.369630   0.041974
H  -2.752419  -1.730678   0.046220
H  -1.325974   1.150814  -0.140403
H  -0.120235  -1.713238   0.293581
H   0.677816  -0.173823  -0.135170

