%chk=/home/boittier/MDCM/nms_sampling/butadiene_geom.xyz.dir/butadiene_2180.chk
%nproc=8
%mem=16000MB
#p B2PLYPD3/Def2QZVP 

butadiene

0 1
C  -3.854348   0.213053   0.044901
C  -2.709432  -0.460989  -0.034898
C  -1.366572   0.026550  -0.013512
C  -0.270486  -0.640945   0.077248
H  -4.828218  -0.246644   0.041402
H  -3.951206   1.316749   0.360470
H  -2.799682  -1.598726   0.045682
H  -1.215536   1.116919  -0.221772
H  -0.283022  -1.693237   0.295553
H   0.667040  -0.173395  -0.120780

