%chk=/home/boittier/MDCM/nms_sampling/butadiene_geom.xyz.dir/butadiene_2051.chk
%nproc=8
%mem=16000MB
#p B2PLYPD3/Def2QZVP 

butadiene

0 1
C  -3.839370   0.194956   0.032852
C  -2.705392  -0.452425  -0.015494
C  -1.387308   0.097497  -0.023038
C  -0.278254  -0.701089   0.068288
H  -4.818194  -0.283117   0.198880
H  -3.837046   1.258887   0.217755
H  -2.677523  -1.463615  -0.053103
H  -1.381109   1.159280  -0.044459
H  -0.301097  -1.753232   0.324538
H   0.705542  -0.163155  -0.085249
