%chk=/home/boittier/MDCM/nms_sampling/butadiene_geom.xyz.dir/butadiene_728.chk
%nproc=8
%mem=16000MB
#p B2PLYPD3/Def2QZVP 

butadiene

0 1
C  -3.834574   0.216938  -0.000653
C  -2.723668  -0.500137   0.046283
C  -1.382803   0.085544   0.033224
C  -0.269641  -0.655820   0.019957
H  -4.795244  -0.257458   0.035183
H  -3.783652   1.300164  -0.000591
H  -2.777584  -1.591571   0.108469
H  -1.300673   1.187153   0.016723
H  -0.345972  -1.762896   0.059609
H   0.717667  -0.233164  -0.058175

