%chk=/home/boittier/MDCM/nms_sampling/butadiene_geom.xyz.dir/butadiene_541.chk
%nproc=8
%mem=16000MB
#p B2PLYPD3/Def2QZVP 

butadiene

0 1
C  -3.847321   0.220300   0.028125
C  -2.712752  -0.486940   0.035985
C  -1.381877   0.078270   0.000146
C  -0.258211  -0.665205   0.036963
H  -4.797905  -0.277799  -0.025079
H  -3.862989   1.294460   0.021408
H  -2.770640  -1.574325   0.007883
H  -1.346842   1.144006  -0.022812
H  -0.333104  -1.740222   0.130109
H   0.691638  -0.209008  -0.004516
