%chk=/home/boittier/MDCM/nms_sampling/butadiene_geom.xyz.dir/butadiene_129.chk
%nproc=8
%mem=16000MB
#p B2PLYPD3/Def2QZVP 

butadiene

0 1
C  -3.841385   0.214688   0.047313
C  -2.714631  -0.496700  -0.000964
C  -1.381068   0.091390  -0.009651
C  -0.272346  -0.660022   0.050127
H  -4.773636  -0.269932   0.075976
H  -3.792010   1.284347  -0.005334
H  -2.797081  -1.576229   0.062531
H  -1.312724   1.183762  -0.032000
H  -0.367779  -1.752656   0.126809
H   0.738682  -0.258899   0.066747

