%chk=/home/boittier/MDCM/nms_sampling/butadiene_geom.xyz.dir/butadiene_520.chk
%nproc=8
%mem=16000MB
#p B2PLYPD3/Def2QZVP 

butadiene

0 1
C  -3.838577   0.227292  -0.000235
C  -2.715711  -0.507188   0.045517
C  -1.391794   0.066791   0.021529
C  -0.262419  -0.648190   0.021932
H  -4.817580  -0.204407   0.107287
H  -3.774579   1.310547  -0.039552
H  -2.791486  -1.598075   0.114753
H  -1.370857   1.159857   0.070564
H  -0.293438  -1.742231   0.033769
H   0.735198  -0.206489   0.012704

