%chk=/home/boittier/MDCM/nms_sampling/butadiene_geom.xyz.dir/butadiene_179.chk
%nproc=8
%mem=16000MB
#p B2PLYPD3/Def2QZVP 

butadiene

0 1
C  -3.843371   0.221705   0.023715
C  -2.733381  -0.501909   0.020164
C  -1.382572   0.069358   0.001735
C  -0.254751  -0.653496   0.044877
H  -4.810217  -0.228564   0.153773
H  -3.757838   1.304893  -0.014416
H  -2.814979  -1.574603   0.037368
H  -1.301817   1.146251  -0.036640
H  -0.263223  -1.737668   0.048018
H   0.703621  -0.148013   0.065683
