%chk=/home/boittier/MDCM/nms_sampling/butadiene_geom.xyz.dir/butadiene_2728.chk
%nproc=8
%mem=16000MB
#p B2PLYPD3/Def2QZVP 

butadiene

0 1
C  -3.847632   0.184662   0.076090
C  -2.703077  -0.427454  -0.028833
C  -1.396589   0.090014   0.001712
C  -0.270249  -0.695630   0.060705
H  -4.811069  -0.339667   0.014394
H  -3.885534   1.298132   0.112850
H  -2.753086  -1.496423  -0.194104
H  -1.289521   1.120344  -0.344591
H  -0.195966  -1.723106   0.345753
H   0.725838  -0.242620  -0.014278

