%chk=/home/boittier/MDCM/nms_sampling/butadiene_geom.xyz.dir/butadiene_598.chk
%nproc=8
%mem=16000MB
#p B2PLYPD3/Def2QZVP 

butadiene

0 1
C  -3.849252   0.217327  -0.007392
C  -2.715476  -0.488145   0.066023
C  -1.379267   0.084242   0.025603
C  -0.262848  -0.662631   0.014335
H  -4.801103  -0.283159   0.070134
H  -3.806805   1.274079  -0.065350
H  -2.770916  -1.570342   0.091267
H  -1.357361   1.164889   0.057681
H  -0.347628  -1.753348  -0.016131
H   0.745068  -0.240354   0.039922

