%chk=/home/boittier/MDCM/nms_sampling/butadiene_geom.xyz.dir/butadiene_2119.chk
%nproc=8
%mem=16000MB
#p B2PLYPD3/Def2QZVP 

butadiene

0 1
C  -3.795603   0.276158  -0.016498
C  -2.731068  -0.551587   0.042500
C  -1.411232   0.017289   0.017835
C  -0.280766  -0.611433   0.011972
H  -4.700453  -0.223685   0.150150
H  -3.718257   1.336887   0.044331
H  -2.864855  -1.691708   0.334690
H  -1.335138   1.112397   0.111273
H  -0.266716  -1.645848  -0.065759
H   0.727585  -0.104092   0.171445

