%chk=/home/boittier/MDCM/nms_sampling/butadiene_geom.xyz.dir/butadiene_1625.chk
%nproc=8
%mem=16000MB
#p B2PLYPD3/Def2QZVP 

butadiene

0 1
C  -3.825424   0.240494   0.039522
C  -2.722721  -0.532668   0.021877
C  -1.391852   0.071147  -0.015982
C  -0.252802  -0.642316   0.068023
H  -4.875284  -0.199405   0.032480
H  -3.789924   1.324736   0.067633
H  -2.835058  -1.613498  -0.082780
H  -1.408154   1.132353  -0.135771
H  -0.327658  -1.735580   0.080351
H   0.734363  -0.180230  -0.030950
