%chk=/home/boittier/MDCM/nms_sampling/butadiene_geom.xyz.dir/butadiene_916.chk
%nproc=8
%mem=16000MB
#p B2PLYPD3/Def2QZVP 

butadiene

0 1
C  -3.833657   0.220450   0.009566
C  -2.714431  -0.490801   0.059617
C  -1.390018   0.092612   0.020884
C  -0.271978  -0.670727   0.016970
H  -4.766699  -0.297149   0.025696
H  -3.816211   1.274119  -0.132873
H  -2.770174  -1.590909   0.077285
H  -1.323025   1.171662   0.059802
H  -0.329175  -1.753932  -0.013400
H   0.708247  -0.215419   0.055857
