%chk=/home/boittier/MDCM/nms_sampling/butadiene_geom.xyz.dir/butadiene_378.chk
%nproc=8
%mem=16000MB
#p B2PLYPD3/Def2QZVP 

butadiene

0 1
C  -3.836491   0.213736  -0.007244
C  -2.701626  -0.482904   0.059439
C  -1.385343   0.077617   0.031816
C  -0.281063  -0.660377   0.011930
H  -4.791943  -0.264082   0.041683
H  -3.835391   1.283464  -0.022115
H  -2.769096  -1.557521   0.148081
H  -1.315733   1.154417   0.013316
H  -0.361673  -1.773305  -0.025927
H   0.702391  -0.223056   0.054758

