%chk=/home/boittier/MDCM/nms_sampling/butadiene_geom.xyz.dir/butadiene_1529.chk
%nproc=8
%mem=16000MB
#p B2PLYPD3/Def2QZVP 

butadiene

0 1
C  -3.845536   0.229880   0.051150
C  -2.711064  -0.501021  -0.012723
C  -1.383597   0.073349  -0.001570
C  -0.265986  -0.662110   0.045335
H  -4.798623  -0.250672   0.060976
H  -3.852948   1.299328   0.071011
H  -2.710076  -1.566607   0.034828
H  -1.331037   1.161026  -0.126911
H  -0.324052  -1.793626   0.217507
H   0.667143  -0.143663   0.070930

