%chk=/home/boittier/MDCM/nms_sampling/butadiene_geom.xyz.dir/butadiene_2646.chk
%nproc=8
%mem=16000MB
#p B2PLYPD3/Def2QZVP 

butadiene

0 1
C  -3.872076   0.223160  -0.024226
C  -2.730018  -0.496514   0.137172
C  -1.357937   0.100743   0.068133
C  -0.227849  -0.673981  -0.023566
H  -4.827763  -0.312056  -0.292358
H  -3.929993   1.237238  -0.180851
H  -2.872644  -1.613624   0.031316
H  -1.379712   1.240223   0.072112
H  -0.319573  -1.819219  -0.049794
H   0.743100  -0.176818  -0.142041

