%chk=/home/boittier/MDCM/nms_sampling/butadiene_geom.xyz.dir/butadiene_2438.chk
%nproc=8
%mem=16000MB
#p B2PLYPD3/Def2QZVP 

butadiene

0 1
C  -3.823991   0.255951  -0.014827
C  -2.689947  -0.541814   0.075142
C  -1.405667   0.060334   0.021752
C  -0.277568  -0.632857   0.021694
H  -4.800023  -0.152049  -0.002327
H  -3.817257   1.302167  -0.127162
H  -2.746622  -1.649210   0.301798
H  -1.414492   1.117858   0.219581
H  -0.382586  -1.706524  -0.202869
H   0.714325  -0.255114  -0.020082
