%chk=/home/boittier/MDCM/nms_sampling/butadiene_geom.xyz.dir/butadiene_2052.chk
%nproc=8
%mem=16000MB
#p B2PLYPD3/Def2QZVP 

butadiene

0 1
C  -3.807621   0.179769  -0.013418
C  -2.710212  -0.445686   0.069032
C  -1.389708   0.123046   0.082066
C  -0.313128  -0.707119   0.015583
H  -4.763963  -0.383773  -0.107308
H  -3.722087   1.252736  -0.015878
H  -2.703532  -1.515157   0.070978
H  -1.251184   1.293705  -0.187499
H  -0.388098  -1.772715  -0.078446
H   0.654734  -0.222819  -0.222091
