%chk=/home/boittier/MDCM/nms_sampling/butadiene_geom.xyz.dir/butadiene_416.chk
%nproc=8
%mem=16000MB
#p B2PLYPD3/Def2QZVP 

butadiene

0 1
C  -3.844385   0.236375   0.038713
C  -2.724999  -0.507716   0.021306
C  -1.389203   0.051953   0.000875
C  -0.256430  -0.647442   0.043815
H  -4.810957  -0.239249   0.038370
H  -3.770514   1.323781  -0.033654
H  -2.785025  -1.576680  -0.017442
H  -1.344603   1.136562  -0.060925
H  -0.228484  -1.733877   0.110293
H   0.711149  -0.129081   0.024390

