%chk=/home/boittier/MDCM/nms_sampling/butadiene_geom.xyz.dir/butadiene_524.chk
%nproc=8
%mem=16000MB
#p B2PLYPD3/Def2QZVP 

butadiene

0 1
C  -3.835413   0.221278   0.030166
C  -2.705479  -0.496895   0.020465
C  -1.385291   0.088052   0.004958
C  -0.276234  -0.665922   0.035005
H  -4.809118  -0.276156   0.025500
H  -3.843019   1.294653   0.030784
H  -2.789787  -1.589145   0.034983
H  -1.335722   1.180341  -0.028068
H  -0.325168  -1.742821   0.168864
H   0.710465  -0.229737   0.008056

