%chk=/home/boittier/MDCM/nms_sampling/butadiene_geom.xyz.dir/butadiene_209.chk
%nproc=8
%mem=16000MB
#p B2PLYPD3/Def2QZVP 

butadiene

0 1
C  -3.822977   0.236855   0.005504
C  -2.720166  -0.513135   0.050880
C  -1.394928   0.054855   0.031671
C  -0.272317  -0.639540   0.021136
H  -4.805674  -0.238013  -0.021003
H  -3.783322   1.308050  -0.032606
H  -2.809051  -1.600666   0.129395
H  -1.315315   1.157168  -0.009733
H  -0.276634  -1.711515  -0.009360
H   0.711250  -0.202947  -0.020475

