%chk=/home/boittier/MDCM/nms_sampling/butadiene_geom.xyz.dir/butadiene_1988.chk
%nproc=8
%mem=16000MB
#p B2PLYPD3/Def2QZVP 

butadiene

0 1
C  -3.845663   0.245990   0.007630
C  -2.749434  -0.500570   0.034987
C  -1.389347   0.037379   0.041230
C  -0.239091  -0.651808  -0.003001
H  -4.798641  -0.277315   0.236529
H  -3.819242   1.365532  -0.251077
H  -2.626625  -1.542601   0.106085
H  -1.304175   1.064877   0.117708
H  -0.139471  -1.715864   0.056254
H   0.581175  -0.081150   0.151088

