%chk=/home/boittier/MDCM/nms_sampling/butadiene_geom.xyz.dir/butadiene_1333.chk
%nproc=8
%mem=16000MB
#p B2PLYPD3/Def2QZVP 

butadiene

0 1
C  -3.841693   0.251268   0.053762
C  -2.730845  -0.513540  -0.010151
C  -1.400115   0.029868  -0.018773
C  -0.236900  -0.634388   0.075317
H  -4.813065  -0.246536   0.199864
H  -3.824093   1.338011  -0.070651
H  -2.808623  -1.584636  -0.016853
H  -1.375977   1.089984  -0.066791
H  -0.198917  -1.665794   0.032642
H   0.742763  -0.159829   0.047422

