%chk=/home/boittier/MDCM/nms_sampling/butadiene_geom.xyz.dir/butadiene_1981.chk
%nproc=8
%mem=16000MB
#p B2PLYPD3/Def2QZVP 

butadiene

0 1
C  -3.823964   0.230530   0.038624
C  -2.700727  -0.531956  -0.011297
C  -1.411308   0.039912   0.009720
C  -0.278226  -0.613461   0.069224
H  -4.949326  -0.021407   0.015077
H  -3.596007   1.350133   0.138196
H  -2.748585  -1.680482   0.103940
H  -1.288927   1.124402  -0.166905
H  -0.316597  -1.754314   0.075874
H   0.655665  -0.166770  -0.132824
