%chk=/home/boittier/MDCM/nms_sampling/butadiene_geom.xyz.dir/butadiene_123.chk
%nproc=8
%mem=16000MB
#p B2PLYPD3/Def2QZVP 

butadiene

0 1
C  -3.847829   0.230569   0.020117
C  -2.725498  -0.508378   0.033321
C  -1.379296   0.060242   0.030336
C  -0.254799  -0.648835   0.022732
H  -4.835400  -0.206164   0.049998
H  -3.778657   1.311157  -0.111923
H  -2.778300  -1.596040   0.106466
H  -1.371897   1.149104  -0.022713
H  -0.278392  -1.730791   0.002410
H   0.714812  -0.153787   0.046092

