%chk=/home/boittier/MDCM/nms_sampling/butadiene_geom.xyz.dir/butadiene_2249.chk
%nproc=8
%mem=16000MB
#p B2PLYPD3/Def2QZVP 

butadiene

0 1
C  -3.860637   0.227321  -0.024216
C  -2.710843  -0.465381   0.106543
C  -1.367849   0.086130   0.061236
C  -0.241636  -0.691511  -0.030164
H  -4.709347  -0.402148  -0.171816
H  -4.018744   1.202476  -0.157111
H  -2.847980  -1.528692   0.141650
H  -1.422581   1.169084   0.233961
H  -0.347730  -1.777385   0.094497
H   0.673188  -0.140780  -0.128916
