%chk=/home/boittier/MDCM/nms_sampling/butadiene_geom.xyz.dir/butadiene_1280.chk
%nproc=8
%mem=16000MB
#p B2PLYPD3/Def2QZVP 

butadiene

0 1
C  -3.822228   0.239055  -0.001979
C  -2.721527  -0.529589   0.048166
C  -1.395096   0.069939   0.052878
C  -0.264216  -0.642778  -0.006304
H  -4.856167  -0.151046   0.034096
H  -3.749845   1.289230  -0.147611
H  -2.826370  -1.654756   0.245664
H  -1.378478   1.137348   0.100123
H  -0.285531  -1.715387  -0.005963
H   0.716164  -0.175411   0.049891

