%chk=/home/boittier/MDCM/nms_sampling/butadiene_geom.xyz.dir/butadiene_417.chk
%nproc=8
%mem=16000MB
#p B2PLYPD3/Def2QZVP 

butadiene

0 1
C  -3.837822   0.214945   0.034654
C  -2.716106  -0.498220   0.003267
C  -1.385879   0.098308  -0.013964
C  -0.268247  -0.668173   0.053700
H  -4.783054  -0.268844   0.156841
H  -3.817092   1.294733   0.024814
H  -2.773408  -1.552614   0.050907
H  -1.330068   1.174163   0.005267
H  -0.345223  -1.757394   0.122698
H   0.728358  -0.246247   0.052047

