%chk=/home/boittier/MDCM/nms_sampling/butadiene_geom.xyz.dir/butadiene_567.chk
%nproc=8
%mem=16000MB
#p B2PLYPD3/Def2QZVP 

butadiene

0 1
C  -3.836717   0.237611  -0.001985
C  -2.728134  -0.505013   0.057234
C  -1.390940   0.046518   0.039496
C  -0.253555  -0.641837   0.021965
H  -4.786472  -0.250761   0.014579
H  -3.797219   1.310571  -0.052472
H  -2.802248  -1.583381   0.054387
H  -1.331258   1.106632   0.007424
H  -0.296544  -1.714248   0.025222
H   0.719692  -0.138362  -0.114668
