%chk=/home/boittier/MDCM/nms_sampling/butadiene_geom.xyz.dir/butadiene_1746.chk
%nproc=8
%mem=16000MB
#p B2PLYPD3/Def2QZVP 

butadiene

0 1
C  -3.856121   0.216904   0.017507
C  -2.719866  -0.495309   0.051536
C  -1.378823   0.066560   0.026540
C  -0.247941  -0.647257   0.014216
H  -4.829167  -0.242744  -0.098693
H  -3.887573   1.341689   0.014340
H  -2.797929  -1.578295   0.043749
H  -1.274376   1.128840  -0.088894
H  -0.348937  -1.731585   0.100165
H   0.758846  -0.222181   0.028335
