%chk=/home/boittier/MDCM/nms_sampling/butadiene_geom.xyz.dir/butadiene_660.chk
%nproc=8
%mem=16000MB
#p B2PLYPD3/Def2QZVP 

butadiene

0 1
C  -3.842950   0.211580   0.012980
C  -2.717038  -0.487103   0.054168
C  -1.386036   0.091846   0.029729
C  -0.267160  -0.670416   0.015853
H  -4.810504  -0.257257  -0.032101
H  -3.773130   1.287416  -0.093448
H  -2.738008  -1.572871   0.103268
H  -1.340287   1.161263  -0.014788
H  -0.331596  -1.741701  -0.016034
H   0.733198  -0.220863   0.045585

