%chk=/home/boittier/MDCM/nms_sampling/butadiene_geom.xyz.dir/butadiene_1120.chk
%nproc=8
%mem=16000MB
#p B2PLYPD3/Def2QZVP 

butadiene

0 1
C  -3.843436   0.212283   0.060603
C  -2.698556  -0.488015  -0.009053
C  -1.379655   0.093182  -0.045181
C  -0.275243  -0.669878   0.058755
H  -4.827783  -0.244733   0.079763
H  -3.818404   1.314596   0.064965
H  -2.745561  -1.609128   0.070700
H  -1.406852   1.174686  -0.023123
H  -0.359292  -1.768224   0.156152
H   0.688114  -0.244786   0.214328

