%chk=/home/boittier/MDCM/nms_sampling/butadiene_geom.xyz.dir/butadiene_1168.chk
%nproc=8
%mem=16000MB
#p B2PLYPD3/Def2QZVP 

butadiene

0 1
C  -3.843478   0.229541   0.062817
C  -2.721759  -0.495111   0.007051
C  -1.388307   0.042840  -0.025352
C  -0.254557  -0.652888   0.061553
H  -4.866047  -0.173848  -0.033082
H  -3.836702   1.309500   0.066953
H  -2.784469  -1.560384  -0.077266
H  -1.370527   1.123539  -0.189163
H  -0.166239  -1.741441   0.147936
H   0.698800  -0.077650   0.097141

