%chk=/home/boittier/MDCM/nms_sampling/butadiene_geom.xyz.dir/butadiene_464.chk
%nproc=8
%mem=16000MB
#p B2PLYPD3/Def2QZVP 

butadiene

0 1
C  -3.848077   0.221548   0.007047
C  -2.724383  -0.481777   0.048553
C  -1.380936   0.070461   0.027559
C  -0.258956  -0.660353   0.025888
H  -4.759803  -0.307681  -0.015336
H  -3.866109   1.285708  -0.021229
H  -2.742618  -1.566014   0.076180
H  -1.303893   1.162338   0.023711
H  -0.308560  -1.762407   0.063307
H   0.716565  -0.206662  -0.097124

