%chk=/home/boittier/MDCM/nms_sampling/butadiene_geom.xyz.dir/butadiene_2451.chk
%nproc=8
%mem=16000MB
#p B2PLYPD3/Def2QZVP 

butadiene

0 1
C  -3.833916   0.204822  -0.035680
C  -2.713502  -0.489982   0.129511
C  -1.382557   0.073217   0.067045
C  -0.279669  -0.657925  -0.036818
H  -4.798641  -0.169979  -0.120340
H  -3.724958   1.291470  -0.075454
H  -2.706182  -1.569110  -0.073056
H  -1.308683   1.197685   0.004490
H  -0.464777  -1.770383   0.108809
H   0.691987  -0.150261  -0.018594
