%chk=/home/boittier/MDCM/nms_sampling/butadiene_geom.xyz.dir/butadiene_903.chk
%nproc=8
%mem=16000MB
#p B2PLYPD3/Def2QZVP 

butadiene

0 1
C  -3.846489   0.228123   0.028061
C  -2.726796  -0.507692   0.024429
C  -1.388023   0.049667   0.009388
C  -0.252863  -0.638517   0.040193
H  -4.846066  -0.200597   0.102961
H  -3.771607   1.329393  -0.090635
H  -2.787869  -1.587369   0.040900
H  -1.300286   1.160024  -0.001650
H  -0.256244  -1.712157   0.039949
H   0.728527  -0.188326   0.025283
