%chk=/home/boittier/MDCM/nms_sampling/butadiene_geom.xyz.dir/butadiene_2847.chk
%nproc=8
%mem=16000MB
#p B2PLYPD3/Def2QZVP 

butadiene

0 1
C  -3.849348   0.230694   0.069447
C  -2.765109  -0.520248  -0.012646
C  -1.395357   0.023247  -0.042500
C  -0.224303  -0.619190   0.074916
H  -4.951815  -0.071218  -0.068504
H  -3.672908   1.357658   0.248244
H  -2.781960  -1.606201  -0.099725
H  -1.272240   1.079163  -0.207448
H  -0.090675  -1.668537   0.313755
H   0.791975  -0.095538   0.009230
