%chk=/home/boittier/MDCM/nms_sampling/butadiene_geom.xyz.dir/butadiene_622.chk
%nproc=8
%mem=16000MB
#p B2PLYPD3/Def2QZVP 

butadiene

0 1
C  -3.845861   0.220801   0.040585
C  -2.721554  -0.500112   0.008642
C  -1.380385   0.080702  -0.008727
C  -0.264255  -0.662296   0.050934
H  -4.813283  -0.240133   0.131202
H  -3.789865   1.294589  -0.038795
H  -2.728577  -1.565892   0.015400
H  -1.337040   1.174606  -0.037010
H  -0.319009  -1.722492   0.084591
H   0.718948  -0.213729   0.081781
