%chk=/home/boittier/MDCM/nms_sampling/butadiene_geom.xyz.dir/butadiene_2454.chk
%nproc=8
%mem=16000MB
#p B2PLYPD3/Def2QZVP 

butadiene

0 1
C  -3.836752   0.254032   0.000705
C  -2.739784  -0.516879   0.085142
C  -1.391550   0.049503   0.054674
C  -0.247520  -0.646742  -0.014377
H  -4.776531  -0.219361  -0.283882
H  -3.778155   1.301704  -0.132544
H  -2.818582  -1.640307   0.254330
H  -1.389382   1.067759   0.100174
H  -0.079413  -1.722307  -0.034367
H   0.619615  -0.094970  -0.048817
