%chk=/home/boittier/MDCM/nms_sampling/butadiene_geom.xyz.dir/butadiene_2611.chk
%nproc=8
%mem=16000MB
#p B2PLYPD3/Def2QZVP 

butadiene

0 1
C  -3.828937   0.228657  -0.062063
C  -2.734703  -0.532327   0.122752
C  -1.401711   0.041725   0.069156
C  -0.262827  -0.619943  -0.020440
H  -4.830847  -0.033394  -0.023729
H  -3.572827   1.313524   0.023625
H  -2.888942  -1.588555   0.179278
H  -1.379288   1.133359   0.018691
H  -0.139866  -1.683776  -0.140666
H   0.747487  -0.191519  -0.004468

