%chk=/home/boittier/MDCM/nms_sampling/butadiene_geom.xyz.dir/butadiene_587.chk
%nproc=8
%mem=16000MB
#p B2PLYPD3/Def2QZVP 

butadiene

0 1
C  -3.844227   0.218274  -0.002200
C  -2.710524  -0.495454   0.054828
C  -1.382575   0.088314   0.036593
C  -0.268407  -0.665900   0.018698
H  -4.797143  -0.276085   0.020839
H  -3.806831   1.297301   0.003068
H  -2.768122  -1.561504   0.063656
H  -1.373276   1.175421  -0.049143
H  -0.357216  -1.740326   0.032483
H   0.752414  -0.238704  -0.034425
