%chk=/home/boittier/MDCM/nms_sampling/butadiene_geom.xyz.dir/butadiene_24.chk
%nproc=8
%mem=16000MB
#p B2PLYPD3/Def2QZVP 

butadiene

0 1
C  -3.842281   0.229392  -0.013901
C  -2.722218  -0.502426   0.063852
C  -1.388336   0.056820   0.040290
C  -0.259014  -0.647483   0.010745
H  -4.802926  -0.221202   0.038103
H  -3.811113   1.312500  -0.010148
H  -2.831963  -1.609693   0.085292
H  -1.291686   1.139816   0.039915
H  -0.231261  -1.723095   0.053964
H   0.698643  -0.153294  -0.071347
