%chk=/home/boittier/MDCM/nms_sampling/butadiene_geom.xyz.dir/butadiene_426.chk
%nproc=8
%mem=16000MB
#p B2PLYPD3/Def2QZVP 

butadiene

0 1
C  -3.838595   0.208426  -0.000005
C  -2.703629  -0.480086   0.058111
C  -1.387000   0.083647   0.031826
C  -0.274555  -0.670043   0.003390
H  -4.812620  -0.251327   0.006577
H  -3.834068   1.295157  -0.076802
H  -2.786753  -1.556383   0.159795
H  -1.309210   1.150036   0.074494
H  -0.327073  -1.740410   0.023801
H   0.688969  -0.201903   0.062099

