%chk=/home/boittier/MDCM/nms_sampling/butadiene_geom.xyz.dir/butadiene_1521.chk
%nproc=8
%mem=16000MB
#p B2PLYPD3/Def2QZVP 

butadiene

0 1
C  -3.865236   0.219296  -0.023153
C  -2.716660  -0.490921   0.096574
C  -1.359573   0.085645   0.063476
C  -0.258513  -0.662893  -0.020879
H  -4.784387  -0.332003  -0.102709
H  -3.902431   1.277200  -0.033002
H  -2.823431  -1.561313   0.060686
H  -1.279187   1.154366  -0.031974
H  -0.384914  -1.752559   0.050617
H   0.747994  -0.205014  -0.005450
