%chk=/home/boittier/MDCM/nms_sampling/butadiene_geom.xyz.dir/butadiene_465.chk
%nproc=8
%mem=16000MB
#p B2PLYPD3/Def2QZVP 

butadiene

0 1
C  -3.827925   0.226717   0.024272
C  -2.715924  -0.503143   0.024933
C  -1.399809   0.060421  -0.016362
C  -0.271552  -0.649441   0.048168
H  -4.815643  -0.199362   0.109930
H  -3.762564   1.299398   0.047859
H  -2.762605  -1.591922   0.045392
H  -1.294085   1.144774   0.010276
H  -0.296811  -1.702506   0.085922
H   0.706648  -0.178953   0.072482
