%chk=/home/boittier/MDCM/nms_sampling/butadiene_geom.xyz.dir/butadiene_77.chk
%nproc=8
%mem=16000MB
#p B2PLYPD3/Def2QZVP 

butadiene

0 1
C  -3.848209   0.212197   0.028916
C  -2.724023  -0.485668   0.020082
C  -1.376674   0.082981   0.012384
C  -0.259500  -0.657379   0.036880
H  -4.814519  -0.288041   0.035245
H  -3.846124   1.273783   0.051693
H  -2.815636  -1.569387   0.005221
H  -1.291316   1.177144  -0.118726
H  -0.320987  -1.763791   0.141034
H   0.771805  -0.249652   0.017028

