%chk=/home/boittier/MDCM/nms_sampling/butadiene_geom.xyz.dir/butadiene_2658.chk
%nproc=8
%mem=16000MB
#p B2PLYPD3/Def2QZVP 

butadiene

0 1
C  -3.821794   0.268429   0.057801
C  -2.723113  -0.569867  -0.002214
C  -1.388673   0.077021  -0.082598
C  -0.246371  -0.643716   0.094267
H  -4.859656  -0.227934   0.016527
H  -3.850398   1.316008   0.375538
H  -2.797480  -1.607279  -0.182324
H  -1.415772   1.150660  -0.114499
H  -0.406572  -1.713781   0.375395
H   0.678461  -0.147907  -0.009213
