%chk=/home/boittier/MDCM/nms_sampling/butadiene_geom.xyz.dir/butadiene_470.chk
%nproc=8
%mem=16000MB
#p B2PLYPD3/Def2QZVP 

butadiene

0 1
C  -3.833888   0.227403  -0.002243
C  -2.727399  -0.515588   0.054685
C  -1.384506   0.065010   0.054093
C  -0.266591  -0.646426   0.003184
H  -4.845040  -0.196570   0.005401
H  -3.703825   1.335703  -0.057867
H  -2.798653  -1.619727   0.085767
H  -1.333021   1.153060  -0.040383
H  -0.282631  -1.704249   0.053982
H   0.701821  -0.155570  -0.027202

