%chk=/home/boittier/MDCM/nms_sampling/butadiene_geom.xyz.dir/butadiene_447.chk
%nproc=8
%mem=16000MB
#p B2PLYPD3/Def2QZVP 

butadiene

0 1
C  -3.836182   0.232670   0.035961
C  -2.717173  -0.513835   0.018245
C  -1.388145   0.062943  -0.019164
C  -0.263473  -0.643456   0.044530
H  -4.820833  -0.191963   0.088686
H  -3.816455   1.322265   0.010998
H  -2.772166  -1.614934   0.038806
H  -1.372929   1.138638   0.015054
H  -0.309991  -1.735754   0.123486
H   0.738024  -0.202503   0.111762
