%chk=/home/boittier/MDCM/nms_sampling/butadiene_geom.xyz.dir/butadiene_303.chk
%nproc=8
%mem=16000MB
#p B2PLYPD3/Def2QZVP 

butadiene

0 1
C  -3.850539   0.218383   0.030087
C  -2.718205  -0.485907   0.008474
C  -1.376961   0.068107   0.002919
C  -0.259035  -0.655725   0.048693
H  -4.791995  -0.273677   0.146426
H  -3.856404   1.294857   0.006303
H  -2.778035  -1.582164   0.060651
H  -1.287251   1.160557  -0.078625
H  -0.354222  -1.759559   0.047721
H   0.704628  -0.185989   0.071542
