%chk=/home/boittier/MDCM/nms_sampling/butadiene_geom.xyz.dir/butadiene_1004.chk
%nproc=8
%mem=16000MB
#p B2PLYPD3/Def2QZVP 

butadiene

0 1
C  -3.841520   0.235356  -0.011198
C  -2.723909  -0.504080   0.069613
C  -1.391270   0.046434   0.009557
C  -0.253607  -0.648654   0.023711
H  -4.846440  -0.217943   0.105430
H  -3.757530   1.295209   0.003710
H  -2.863511  -1.583154   0.044982
H  -1.315854   1.130346   0.049183
H  -0.156848  -1.683815  -0.003725
H   0.651812  -0.115186   0.053812

