%chk=/home/boittier/MDCM/nms_sampling/butadiene_geom.xyz.dir/butadiene_630.chk
%nproc=8
%mem=16000MB
#p B2PLYPD3/Def2QZVP 

butadiene

0 1
C  -3.836905   0.231446  -0.004916
C  -2.715973  -0.513944   0.063701
C  -1.389159   0.061307   0.020306
C  -0.265572  -0.640365   0.018239
H  -4.796077  -0.217354   0.053833
H  -3.773611   1.314812  -0.060533
H  -2.794017  -1.576914   0.122052
H  -1.337240   1.136237   0.078845
H  -0.347662  -1.742567  -0.031418
H   0.728118  -0.197180   0.036323
