%chk=/home/boittier/MDCM/nms_sampling/butadiene_geom.xyz.dir/butadiene_1672.chk
%nproc=8
%mem=16000MB
#p B2PLYPD3/Def2QZVP 

butadiene

0 1
C  -3.832712   0.234070   0.041396
C  -2.737063  -0.525158   0.017585
C  -1.378400   0.062445  -0.025746
C  -0.252514  -0.633636   0.068268
H  -4.819271  -0.214387   0.117286
H  -3.757123   1.331237  -0.034639
H  -2.838231  -1.598854  -0.015656
H  -1.339213   1.110923  -0.015890
H  -0.342178  -1.727579   0.019120
H   0.695117  -0.182498   0.042849

