%chk=/home/boittier/MDCM/nms_sampling/butadiene_geom.xyz.dir/butadiene_1811.chk
%nproc=8
%mem=16000MB
#p B2PLYPD3/Def2QZVP 

butadiene

0 1
C  -3.848436   0.224149   0.047500
C  -2.732915  -0.507809  -0.017315
C  -1.378851   0.057695  -0.016662
C  -0.237839  -0.646947   0.070050
H  -4.865853  -0.197871   0.158581
H  -3.801561   1.334532   0.017810
H  -2.898770  -1.625462   0.129321
H  -1.319070   1.155773  -0.048942
H  -0.264955  -1.698098   0.023499
H   0.709526  -0.123155   0.067015
