%chk=/home/boittier/MDCM/nms_sampling/butadiene_geom.xyz.dir/butadiene_591.chk
%nproc=8
%mem=16000MB
#p B2PLYPD3/Def2QZVP 

butadiene

0 1
C  -3.838338   0.225831   0.031635
C  -2.720905  -0.498244   0.006243
C  -1.385421   0.052247  -0.009436
C  -0.256576  -0.643392   0.053612
H  -4.825945  -0.207753   0.124121
H  -3.836186   1.305476   0.063680
H  -2.828444  -1.574464   0.045923
H  -1.352308   1.133501  -0.032297
H  -0.282059  -1.749819   0.125271
H   0.720419  -0.167066   0.023095
