%chk=/home/boittier/MDCM/nms_sampling/butadiene_geom.xyz.dir/butadiene_365.chk
%nproc=8
%mem=16000MB
#p B2PLYPD3/Def2QZVP 

butadiene

0 1
C  -3.843611   0.231325   0.002658
C  -2.732363  -0.513011   0.060889
C  -1.382661   0.060782   0.020230
C  -0.252869  -0.642274   0.013514
H  -4.801203  -0.224966   0.039613
H  -3.746782   1.326837  -0.067345
H  -2.832011  -1.618965   0.070703
H  -1.329003   1.140116   0.049726
H  -0.276598  -1.721634   0.032296
H   0.714849  -0.164263   0.061439
