%chk=/home/boittier/MDCM/nms_sampling/butadiene_geom.xyz.dir/butadiene_548.chk
%nproc=8
%mem=16000MB
#p B2PLYPD3/Def2QZVP 

butadiene

0 1
C  -3.830668   0.231761   0.007987
C  -2.717858  -0.510017   0.038004
C  -1.397777   0.055681   0.023399
C  -0.263965  -0.641376   0.027734
H  -4.810769  -0.202381   0.019322
H  -3.753912   1.306543   0.036556
H  -2.822048  -1.574487   0.113984
H  -1.344255   1.130705  -0.025342
H  -0.265831  -1.729718   0.054419
H   0.709772  -0.183754  -0.023050

