%chk=/home/boittier/MDCM/nms_sampling/butadiene_geom.xyz.dir/butadiene_2244.chk
%nproc=8
%mem=16000MB
#p B2PLYPD3/Def2QZVP 

butadiene

0 1
C  -3.820796   0.244767   0.071184
C  -2.716815  -0.538309  -0.028678
C  -1.399992   0.072434  -0.025683
C  -0.269888  -0.633277   0.057428
H  -4.808837  -0.214731   0.016637
H  -3.668939   1.257425   0.176902
H  -2.920137  -1.646878  -0.134877
H  -1.362257   1.191061  -0.128170
H  -0.311551  -1.717868   0.484362
H   0.752087  -0.240003  -0.033092

