%chk=/home/boittier/MDCM/nms_sampling/butadiene_geom.xyz.dir/butadiene_1741.chk
%nproc=8
%mem=16000MB
#p B2PLYPD3/Def2QZVP 

butadiene

0 1
C  -3.834528   0.208858   0.044241
C  -2.726166  -0.492133  -0.003327
C  -1.387501   0.083873   0.003382
C  -0.269901  -0.658161   0.060020
H  -4.831799  -0.243679   0.109366
H  -3.709510   1.283842  -0.033685
H  -2.705527  -1.554256   0.064514
H  -1.275537   1.195558  -0.103753
H  -0.379811  -1.734879   0.018566
H   0.712327  -0.246000   0.021745

