%chk=/home/boittier/MDCM/nms_sampling/butadiene_geom.xyz.dir/butadiene_1867.chk
%nproc=8
%mem=16000MB
#p B2PLYPD3/Def2QZVP 

butadiene

0 1
C  -3.850494   0.197209   0.022550
C  -2.725922  -0.471791   0.038064
C  -1.376375   0.103100   0.013391
C  -0.264744  -0.676184   0.028642
H  -4.794848  -0.306530  -0.012736
H  -3.789289   1.289482  -0.074543
H  -2.769451  -1.553881   0.164897
H  -1.261319   1.169605   0.014874
H  -0.323747  -1.796246  -0.037743
H   0.726462  -0.207968   0.074269

