%chk=/home/boittier/MDCM/nms_sampling/butadiene_geom.xyz.dir/butadiene_91.chk
%nproc=8
%mem=16000MB
#p B2PLYPD3/Def2QZVP 

butadiene

0 1
C  -3.835305   0.232617   0.018417
C  -2.715460  -0.513807   0.036779
C  -1.389492   0.061485   0.029601
C  -0.268365  -0.647248   0.023381
H  -4.845525  -0.198341  -0.042225
H  -3.797272   1.329724  -0.032071
H  -2.782254  -1.617762   0.100077
H  -1.299363   1.154452  -0.012078
H  -0.246543  -1.722905   0.079808
H   0.662053  -0.166647  -0.055485
