%chk=/home/boittier/MDCM/nms_sampling/butadiene_geom.xyz.dir/butadiene_414.chk
%nproc=8
%mem=16000MB
#p B2PLYPD3/Def2QZVP 

butadiene

0 1
C  -3.839997   0.227700   0.002074
C  -2.720055  -0.499039   0.051957
C  -1.395099   0.058769   0.025153
C  -0.252427  -0.652694   0.012343
H  -4.810642  -0.220698   0.015549
H  -3.815878   1.312863  -0.027533
H  -2.798240  -1.576395   0.164566
H  -1.351620   1.157397   0.035372
H  -0.245748  -1.719247   0.007905
H   0.702650  -0.184886   0.070830
