%chk=/home/boittier/MDCM/nms_sampling/butadiene_geom.xyz.dir/butadiene_1392.chk
%nproc=8
%mem=16000MB
#p B2PLYPD3/Def2QZVP 

butadiene

0 1
C  -3.844523   0.213767  -0.015429
C  -2.703370  -0.491306   0.068816
C  -1.382720   0.099249   0.028020
C  -0.281895  -0.679704   0.014594
H  -4.773768  -0.245081   0.008270
H  -3.850412   1.305757   0.023585
H  -2.676320  -1.602393   0.103993
H  -1.270471   1.179576   0.091668
H  -0.365998  -1.771510   0.060519
H   0.660434  -0.169110  -0.084856
