%chk=/home/boittier/MDCM/nms_sampling/butadiene_geom.xyz.dir/butadiene_174.chk
%nproc=8
%mem=16000MB
#p B2PLYPD3/Def2QZVP 

butadiene

0 1
C  -3.840591   0.235233   0.040235
C  -2.729327  -0.514927   0.001679
C  -1.383621   0.061525  -0.000309
C  -0.248392  -0.645526   0.044790
H  -4.844172  -0.199805   0.129836
H  -3.828510   1.288716  -0.024466
H  -2.832039  -1.581180   0.056167
H  -1.362033   1.128813  -0.056922
H  -0.244745  -1.729453   0.099170
H   0.718115  -0.167449   0.097334

