%chk=/home/boittier/MDCM/nms_sampling/butadiene_geom.xyz.dir/butadiene_2879.chk
%nproc=8
%mem=16000MB
#p B2PLYPD3/Def2QZVP 

butadiene

0 1
C  -3.805545   0.245118   0.021371
C  -2.740359  -0.543163   0.083695
C  -1.394995   0.031180   0.038054
C  -0.244121  -0.607818   0.005991
H  -4.860134  -0.165057  -0.283056
H  -3.677689   1.377092  -0.068347
H  -2.886613  -1.570267  -0.051173
H  -1.488006   1.120999  -0.123991
H  -0.377863  -1.736573   0.070622
H   0.708810  -0.180431  -0.048480

