%chk=/home/boittier/MDCM/nms_sampling/butadiene_geom.xyz.dir/butadiene_2766.chk
%nproc=8
%mem=16000MB
#p B2PLYPD3/Def2QZVP 

butadiene

0 1
C  -3.840915   0.243868  -0.025268
C  -2.747304  -0.533943   0.067686
C  -1.378237   0.034669   0.053463
C  -0.226557  -0.631999   0.021031
H  -4.953969  -0.075075   0.023383
H  -3.801111   1.321627  -0.024235
H  -2.844617  -1.630506   0.106847
H  -1.417453   1.188020   0.106962
H  -0.123636  -1.725660   0.020987
H   0.637669  -0.082438  -0.286373
