%chk=/home/boittier/MDCM/nms_sampling/butadiene_geom.xyz.dir/butadiene_1410.chk
%nproc=8
%mem=16000MB
#p B2PLYPD3/Def2QZVP 

butadiene

0 1
C  -3.855267   0.219155  -0.005653
C  -2.724399  -0.496655   0.053369
C  -1.370970   0.093725   0.060240
C  -0.245925  -0.662298  -0.009334
H  -4.813095  -0.289756  -0.069484
H  -3.862603   1.303960  -0.003541
H  -2.836056  -1.601881   0.156100
H  -1.360925   1.138018   0.005733
H  -0.332742  -1.798047   0.136087
H   0.735208  -0.204800  -0.062610

