%chk=/home/boittier/MDCM/nms_sampling/butadiene_geom.xyz.dir/butadiene_344.chk
%nproc=8
%mem=16000MB
#p B2PLYPD3/Def2QZVP 

butadiene

0 1
C  -3.836478   0.220618   0.022678
C  -2.713212  -0.489909   0.032204
C  -1.384235   0.075827   0.022336
C  -0.278257  -0.657699   0.029707
H  -4.763233  -0.288729   0.059439
H  -3.856313   1.290129  -0.106975
H  -2.778102  -1.585081   0.087232
H  -1.283341   1.165166  -0.014581
H  -0.331345  -1.737403   0.000776
H   0.745602  -0.230687   0.037500

