%chk=/home/boittier/MDCM/nms_sampling/butadiene_geom.xyz.dir/butadiene_913.chk
%nproc=8
%mem=16000MB
#p B2PLYPD3/Def2QZVP 

butadiene

0 1
C  -3.831377   0.215910   0.047471
C  -2.707596  -0.490880  -0.003169
C  -1.385807   0.083238  -0.002046
C  -0.279267  -0.662657   0.049400
H  -4.795084  -0.278786   0.065547
H  -3.855003   1.302473  -0.018435
H  -2.795830  -1.589813   0.083642
H  -1.283294   1.171788  -0.048881
H  -0.360425  -1.731458   0.104219
H   0.720375  -0.224538   0.050628
