%chk=/home/boittier/MDCM/nms_sampling/butadiene_geom.xyz.dir/butadiene_1263.chk
%nproc=8
%mem=16000MB
#p B2PLYPD3/Def2QZVP 

butadiene

0 1
C  -3.851382   0.206073   0.021821
C  -2.704619  -0.477986   0.016644
C  -1.372821   0.089398   0.000209
C  -0.275622  -0.675845   0.043221
H  -4.838635  -0.255675   0.230460
H  -3.843230   1.250256  -0.030308
H  -2.789378  -1.547314   0.006849
H  -1.268152   1.194489  -0.017440
H  -0.298226  -1.739418   0.079600
H   0.657692  -0.201108   0.091230

