%chk=/home/boittier/MDCM/nms_sampling/butadiene_geom.xyz.dir/butadiene_76.chk
%nproc=8
%mem=16000MB
#p B2PLYPD3/Def2QZVP 

butadiene

0 1
C  -3.832121   0.228507  -0.006985
C  -2.721093  -0.514921   0.054317
C  -1.388423   0.072181   0.037770
C  -0.259735  -0.647492   0.013304
H  -4.818876  -0.213384   0.067214
H  -3.753550   1.317057  -0.058542
H  -2.817564  -1.606991   0.122745
H  -1.350841   1.143300   0.060669
H  -0.342035  -1.729806   0.021685
H   0.684181  -0.190163  -0.033925

