%chk=/home/boittier/MDCM/nms_sampling/butadiene_geom.xyz.dir/butadiene_2171.chk
%nproc=8
%mem=16000MB
#p B2PLYPD3/Def2QZVP 

butadiene

0 1
C  -3.867469   0.240659  -0.022729
C  -2.727238  -0.494727   0.077943
C  -1.373892   0.014379   0.063443
C  -0.254834  -0.641373   0.018271
H  -4.790049  -0.224408  -0.043095
H  -3.787752   1.336952  -0.065027
H  -2.701422  -1.536622   0.077621
H  -1.304115   1.120764   0.046453
H  -0.187207  -1.761994  -0.028758
H   0.638246   0.002416  -0.295760
