%chk=/home/boittier/MDCM/nms_sampling/butadiene_geom.xyz.dir/butadiene_367.chk
%nproc=8
%mem=16000MB
#p B2PLYPD3/Def2QZVP 

butadiene

0 1
C  -3.842692   0.219838   0.024808
C  -2.724347  -0.487139   0.009049
C  -1.387165   0.071330   0.003253
C  -0.258161  -0.664100   0.044099
H  -4.809140  -0.258314   0.131708
H  -3.798517   1.300162   0.025862
H  -2.752319  -1.573040   0.118569
H  -1.338174   1.155397  -0.017367
H  -0.266475  -1.722916   0.067219
H   0.700281  -0.182083   0.051219
