%chk=/home/boittier/MDCM/nms_sampling/butadiene_geom.xyz.dir/butadiene_379.chk
%nproc=8
%mem=16000MB
#p B2PLYPD3/Def2QZVP 

butadiene

0 1
C  -3.855416   0.208133   0.014384
C  -2.720266  -0.488806   0.029062
C  -1.367373   0.085084   0.025216
C  -0.265197  -0.664715   0.031493
H  -4.817675  -0.250670   0.071334
H  -3.802170   1.297085  -0.062538
H  -2.793089  -1.546784   0.151234
H  -1.307112   1.163953   0.011272
H  -0.321892  -1.748338  -0.012605
H   0.715673  -0.194839  -0.001876

