%chk=/home/boittier/MDCM/nms_sampling/butadiene_geom.xyz.dir/butadiene_2201.chk
%nproc=8
%mem=16000MB
#p B2PLYPD3/Def2QZVP 

butadiene

0 1
C  -3.882787   0.226684   0.064391
C  -2.737977  -0.470528  -0.033145
C  -1.362043   0.054462  -0.020961
C  -0.240424  -0.656291   0.058699
H  -4.773116  -0.343838   0.041959
H  -3.891918   1.289919   0.235400
H  -2.649673  -1.621639  -0.105139
H  -1.316708   1.156455  -0.163609
H  -0.316424  -1.735329   0.475216
H   0.820934  -0.194283  -0.038842
