%chk=/home/boittier/MDCM/nms_sampling/butadiene_geom.xyz.dir/butadiene_751.chk
%nproc=8
%mem=16000MB
#p B2PLYPD3/Def2QZVP 

butadiene

0 1
C  -3.834875   0.232794   0.010607
C  -2.725709  -0.516861   0.051314
C  -1.385328   0.057846   0.027271
C  -0.260966  -0.639039   0.015277
H  -4.806077  -0.203610  -0.026663
H  -3.777405   1.322254  -0.073132
H  -2.785853  -1.593309   0.143203
H  -1.340261   1.147117   0.021837
H  -0.335910  -1.745112  -0.004378
H   0.716896  -0.169002   0.041912

