%chk=/home/boittier/MDCM/nms_sampling/butadiene_geom.xyz.dir/butadiene_1380.chk
%nproc=8
%mem=16000MB
#p B2PLYPD3/Def2QZVP 

butadiene

0 1
C  -3.828459   0.211916  -0.011841
C  -2.710445  -0.484066   0.076525
C  -1.381617   0.091209   0.023637
C  -0.291183  -0.670417   0.016899
H  -4.804073  -0.304446  -0.002113
H  -3.783934   1.281074  -0.101438
H  -2.797865  -1.568429   0.192829
H  -1.286289   1.172713   0.157228
H  -0.302290  -1.780640  -0.106291
H   0.688799  -0.178622  -0.016685
