%chk=/home/boittier/MDCM/nms_sampling/butadiene_geom.xyz.dir/butadiene_2311.chk
%nproc=8
%mem=16000MB
#p B2PLYPD3/Def2QZVP 

butadiene

0 1
C  -3.863556   0.175400  -0.016767
C  -2.686519  -0.467780   0.075768
C  -1.380771   0.120145   0.085727
C  -0.280690  -0.686440  -0.000081
H  -4.892996  -0.174519  -0.103718
H  -3.760156   1.338106  -0.113764
H  -2.707497  -1.589742   0.167248
H  -1.352864   1.233103  -0.076235
H  -0.343377  -1.762018  -0.124575
H   0.759348  -0.323884  -0.148083
