%chk=/home/boittier/MDCM/nms_sampling/butadiene_geom.xyz.dir/butadiene_1261.chk
%nproc=8
%mem=16000MB
#p B2PLYPD3/Def2QZVP 

butadiene

0 1
C  -3.850392   0.195314   0.005992
C  -2.720455  -0.467686   0.045276
C  -1.370245   0.091841   0.023123
C  -0.268210  -0.670952   0.031380
H  -4.851453  -0.270463   0.039394
H  -3.851489   1.247988  -0.072364
H  -2.812792  -1.532315   0.180784
H  -1.240338   1.179695   0.044834
H  -0.295364  -1.783857  -0.088264
H   0.731578  -0.209800  -0.005213
