%chk=/home/boittier/MDCM/nms_sampling/butadiene_geom.xyz.dir/butadiene_733.chk
%nproc=8
%mem=16000MB
#p B2PLYPD3/Def2QZVP 

butadiene

0 1
C  -3.826929   0.239572   0.030613
C  -2.711783  -0.517541   0.020553
C  -1.401005   0.056122  -0.013948
C  -0.268498  -0.647162   0.054516
H  -4.819730  -0.193655   0.087259
H  -3.796819   1.321955   0.072075
H  -2.770669  -1.594466  -0.013758
H  -1.357374   1.137187  -0.071418
H  -0.275442  -1.725749   0.104642
H   0.707459  -0.144373   0.039253
