%chk=/home/boittier/MDCM/nms_sampling/butadiene_geom.xyz.dir/butadiene_2644.chk
%nproc=8
%mem=16000MB
#p B2PLYPD3/Def2QZVP 

butadiene

0 1
C  -3.856858   0.193710   0.093901
C  -2.725622  -0.474811  -0.018941
C  -1.353279   0.128606  -0.055567
C  -0.262651  -0.698361   0.082817
H  -4.881878  -0.301324   0.153145
H  -3.902784   1.267871  -0.181568
H  -2.733668  -1.548877  -0.114776
H  -1.288303   1.180566  -0.058071
H  -0.346589  -1.789613   0.075797
H   0.691880  -0.180607   0.217271

