%chk=/home/boittier/MDCM/nms_sampling/butadiene_geom.xyz.dir/butadiene_1152.chk
%nproc=8
%mem=16000MB
#p B2PLYPD3/Def2QZVP 

butadiene

0 1
C  -3.820936   0.241263   0.038125
C  -2.718010  -0.521861   0.020097
C  -1.397626   0.060226  -0.023331
C  -0.259310  -0.652827   0.041171
H  -4.779158  -0.214571   0.097047
H  -3.792325   1.365230  -0.043198
H  -2.829197  -1.619866   0.056039
H  -1.424195   1.146103   0.079174
H  -0.285931  -1.718718   0.118198
H   0.647640  -0.113328   0.138370
