%chk=/home/boittier/MDCM/nms_sampling/butadiene_geom.xyz.dir/butadiene_214.chk
%nproc=8
%mem=16000MB
#p B2PLYPD3/Def2QZVP 

butadiene

0 1
C  -3.840613   0.209768   0.024696
C  -2.713889  -0.487223   0.017858
C  -1.383571   0.084530   0.013211
C  -0.274908  -0.660593   0.037207
H  -4.821030  -0.251230   0.108339
H  -3.789559   1.281578  -0.001636
H  -2.762885  -1.553585   0.060661
H  -1.312407   1.167479  -0.077056
H  -0.331391  -1.739387   0.065388
H   0.756420  -0.257910   0.062711
