%chk=/home/boittier/MDCM/nms_sampling/butadiene_geom.xyz.dir/butadiene_1547.chk
%nproc=8
%mem=16000MB
#p B2PLYPD3/Def2QZVP 

butadiene

0 1
C  -3.839644   0.226019  -0.007990
C  -2.745761  -0.510002   0.069191
C  -1.384727   0.063600   0.055814
C  -0.240681  -0.645365   0.011648
H  -4.845118  -0.209752  -0.012923
H  -3.697643   1.326627  -0.128332
H  -2.805718  -1.569813   0.053044
H  -1.369004   1.106287   0.042119
H  -0.253053  -1.716234   0.006401
H   0.694132  -0.163186  -0.166421
