%chk=/home/boittier/MDCM/nms_sampling/butadiene_geom.xyz.dir/butadiene_537.chk
%nproc=8
%mem=16000MB
#p B2PLYPD3/Def2QZVP 

butadiene

0 1
C  -3.849964   0.220394   0.011589
C  -2.726685  -0.492720   0.049512
C  -1.374199   0.076473   0.029843
C  -0.262858  -0.656376   0.017110
H  -4.786808  -0.285340  -0.040880
H  -3.828948   1.284400  -0.051401
H  -2.777617  -1.589084   0.075553
H  -1.269783   1.155690   0.027160
H  -0.324495  -1.722361   0.088289
H   0.740636  -0.217865  -0.056436
