%chk=/home/boittier/MDCM/nms_sampling/butadiene_geom.xyz.dir/butadiene_2603.chk
%nproc=8
%mem=16000MB
#p B2PLYPD3/Def2QZVP 

butadiene

0 1
C  -3.840525   0.242067   0.078963
C  -2.726285  -0.503404  -0.035884
C  -1.367560   0.031494  -0.000104
C  -0.256062  -0.634242   0.065741
H  -4.752737  -0.206621  -0.092806
H  -3.935593   1.269955   0.055540
H  -3.013504  -1.641304   0.024912
H  -1.341402   1.082969  -0.138005
H  -0.182978  -1.682101   0.280698
H   0.682005  -0.103625  -0.145914

