%chk=/home/boittier/MDCM/nms_sampling/butadiene_geom.xyz.dir/butadiene_982.chk
%nproc=8
%mem=16000MB
#p B2PLYPD3/Def2QZVP 

butadiene

0 1
C  -3.846763   0.238121  -0.006448
C  -2.732346  -0.504030   0.057591
C  -1.382874   0.049874   0.053862
C  -0.253437  -0.643003   0.016288
H  -4.727741  -0.301168  -0.068109
H  -3.809950   1.322208  -0.032537
H  -2.841612  -1.581340   0.122881
H  -1.269030   1.099102   0.035193
H  -0.268632  -1.721251   0.043418
H   0.698530  -0.127077  -0.216979
