%chk=/home/boittier/MDCM/nms_sampling/butadiene_geom.xyz.dir/butadiene_2643.chk
%nproc=8
%mem=16000MB
#p B2PLYPD3/Def2QZVP 

butadiene

0 1
C  -3.875360   0.188362   0.009726
C  -2.695644  -0.418675   0.043537
C  -1.355457   0.067339   0.045631
C  -0.284847  -0.672704  -0.002026
H  -4.836753  -0.339149   0.038746
H  -4.004843   1.189836  -0.282759
H  -2.714455  -1.494718   0.267951
H  -1.147918   1.083388   0.231416
H  -0.326274  -1.754660  -0.022897
H   0.725564  -0.239733   0.017417

