%chk=/home/boittier/MDCM/nms_sampling/butadiene_geom.xyz.dir/butadiene_1681.chk
%nproc=8
%mem=16000MB
#p B2PLYPD3/Def2QZVP 

butadiene

0 1
C  -3.816922   0.244689   0.027115
C  -2.717222  -0.515190   0.007526
C  -1.404811   0.044678   0.011756
C  -0.275693  -0.635526   0.047971
H  -4.761852  -0.225698   0.097710
H  -3.767528   1.311744   0.133048
H  -2.806912  -1.595666  -0.027798
H  -1.360376   1.093028  -0.194121
H  -0.270605  -1.689954   0.163160
H   0.743209  -0.182537  -0.009561

