%chk=/home/boittier/MDCM/nms_sampling/butadiene_geom.xyz.dir/butadiene_2448.chk
%nproc=8
%mem=16000MB
#p B2PLYPD3/Def2QZVP 

butadiene

0 1
C  -3.841707   0.192233   0.029421
C  -2.693143  -0.456484   0.041182
C  -1.385704   0.117457   0.035636
C  -0.293259  -0.680330   0.018724
H  -4.755235  -0.318714  -0.053985
H  -3.880671   1.241836  -0.193497
H  -2.755108  -1.540420   0.166586
H  -1.381038   1.127762  -0.052548
H  -0.385710  -1.752327  -0.115717
H   0.897369  -0.398813   0.102978
