%chk=/home/boittier/MDCM/nms_sampling/butadiene_geom.xyz.dir/butadiene_387.chk
%nproc=8
%mem=16000MB
#p B2PLYPD3/Def2QZVP 

butadiene

0 1
C  -3.834317   0.221570   0.034386
C  -2.722237  -0.502250   0.027477
C  -1.384762   0.082583  -0.009900
C  -0.268647  -0.660583   0.054636
H  -4.808210  -0.233997   0.015955
H  -3.782237   1.284459   0.048555
H  -2.760508  -1.580134  -0.040903
H  -1.327316   1.178437  -0.086336
H  -0.309686  -1.749174   0.099174
H   0.690481  -0.199672  -0.009168

