%chk=/home/boittier/MDCM/nms_sampling/butadiene_geom.xyz.dir/butadiene_636.chk
%nproc=8
%mem=16000MB
#p B2PLYPD3/Def2QZVP 

butadiene

0 1
C  -3.845596   0.222004   0.038448
C  -2.723414  -0.497750   0.018702
C  -1.382265   0.058537  -0.022948
C  -0.255044  -0.647478   0.059935
H  -4.857120  -0.213625   0.051475
H  -3.787330   1.301610   0.031677
H  -2.814007  -1.571505   0.033359
H  -1.326394   1.151337  -0.019263
H  -0.260108  -1.720495   0.062269
H   0.705488  -0.188143   0.043694
