%chk=/home/boittier/MDCM/nms_sampling/butadiene_geom.xyz.dir/butadiene_684.chk
%nproc=8
%mem=16000MB
#p B2PLYPD3/Def2QZVP 

butadiene

0 1
C  -3.845356   0.227569  -0.004521
C  -2.727052  -0.501582   0.049612
C  -1.382839   0.057781   0.047379
C  -0.255446  -0.651855   0.007236
H  -4.819368  -0.220840   0.008172
H  -3.791530   1.311374  -0.021510
H  -2.795195  -1.607470   0.152260
H  -1.288546   1.149458   0.007866
H  -0.277544  -1.730051   0.047513
H   0.684656  -0.105748  -0.038036

