%chk=/home/boittier/MDCM/nms_sampling/butadiene_geom.xyz.dir/butadiene_2162.chk
%nproc=8
%mem=16000MB
#p B2PLYPD3/Def2QZVP 

butadiene

0 1
C  -3.857537   0.203591   0.106467
C  -2.694946  -0.488272  -0.077919
C  -1.363890   0.108275  -0.035677
C  -0.278159  -0.667049   0.092272
H  -4.744492  -0.305004   0.204201
H  -3.874823   1.250315  -0.017546
H  -2.757661  -1.529860  -0.006133
H  -1.299114   1.203774  -0.248392
H  -0.608503  -1.804153   0.154627
H   0.782386  -0.288338   0.194577
