%chk=/home/boittier/MDCM/nms_sampling/butadiene_geom.xyz.dir/butadiene_2299.chk
%nproc=8
%mem=16000MB
#p B2PLYPD3/Def2QZVP 

butadiene

0 1
C  -3.811252   0.236675  -0.015868
C  -2.758560  -0.539534   0.072211
C  -1.395403   0.048863   0.021484
C  -0.255613  -0.622011   0.023890
H  -4.912829  -0.118728   0.012645
H  -3.478456   1.327048  -0.094967
H  -2.818771  -1.634058   0.353489
H  -1.388142   1.137859   0.144658
H  -0.242745  -1.749545  -0.289088
H   0.687788  -0.082279   0.070111
