%chk=/home/boittier/MDCM/nms_sampling/butadiene_geom.xyz.dir/butadiene_2593.chk
%nproc=8
%mem=16000MB
#p B2PLYPD3/Def2QZVP 

butadiene

0 1
C  -3.792231   0.217256   0.062156
C  -2.724048  -0.513142   0.019761
C  -1.422273   0.054491  -0.031414
C  -0.272485  -0.628784   0.061119
H  -4.900582  -0.072734  -0.118378
H  -3.593353   1.334310   0.055328
H  -2.819284  -1.568397  -0.134822
H  -1.383944   1.067608  -0.058024
H  -0.235951  -1.711912   0.262686
H   0.661159  -0.227522  -0.065143
