%chk=/home/boittier/MDCM/nms_sampling/butadiene_geom.xyz.dir/butadiene_993.chk
%nproc=8
%mem=16000MB
#p B2PLYPD3/Def2QZVP 

butadiene

0 1
C  -3.864953   0.221687  -0.031848
C  -2.712148  -0.487146   0.075143
C  -1.371037   0.092652   0.052795
C  -0.266760  -0.679344  -0.000888
H  -4.802732  -0.310456   0.064299
H  -3.881511   1.267978  -0.026471
H  -2.708286  -1.557658   0.143777
H  -1.252388   1.137312   0.113361
H  -0.290797  -1.746137   0.030412
H   0.690378  -0.162400  -0.098471

