%chk=/home/boittier/MDCM/nms_sampling/butadiene_geom.xyz.dir/butadiene_900.chk
%nproc=8
%mem=16000MB
#p B2PLYPD3/Def2QZVP 

butadiene

0 1
C  -3.834865   0.215525   0.001795
C  -2.711185  -0.490178   0.046509
C  -1.390829   0.079411   0.038161
C  -0.278883  -0.663806   0.020674
H  -4.793651  -0.228465   0.059591
H  -3.817818   1.296639  -0.060819
H  -2.710696  -1.570935   0.121817
H  -1.302802   1.176995  -0.024862
H  -0.313501  -1.754465  -0.032931
H   0.711644  -0.210192   0.001306

