%chk=/home/boittier/MDCM/nms_sampling/butadiene_geom.xyz.dir/butadiene_1847.chk
%nproc=8
%mem=16000MB
#p B2PLYPD3/Def2QZVP 

butadiene

0 1
C  -3.850595   0.219777  -0.002090
C  -2.704193  -0.498658   0.058079
C  -1.373244   0.098419   0.025448
C  -0.266667  -0.666126   0.011627
H  -4.785915  -0.259160   0.055825
H  -3.830290   1.261539  -0.037012
H  -2.772936  -1.586238   0.146816
H  -1.412843   1.177777  -0.007836
H  -0.415811  -1.782516  -0.049204
H   0.719303  -0.258759   0.137780

