%chk=/home/boittier/MDCM/nms_sampling/butadiene_geom.xyz.dir/butadiene_1147.chk
%nproc=8
%mem=16000MB
#p B2PLYPD3/Def2QZVP 

butadiene

0 1
C  -3.842467   0.206570   0.071934
C  -2.722470  -0.490378  -0.024861
C  -1.375879   0.121584  -0.035488
C  -0.272694  -0.683635   0.071985
H  -4.810923  -0.298116   0.123208
H  -3.787973   1.280077  -0.060756
H  -2.717186  -1.574922   0.024461
H  -1.321898   1.184045   0.029445
H  -0.332622  -1.737007   0.165582
H   0.715199  -0.282085   0.055437
