%chk=/home/boittier/MDCM/nms_sampling/butadiene_geom.xyz.dir/butadiene_658.chk
%nproc=8
%mem=16000MB
#p B2PLYPD3/Def2QZVP 

butadiene

0 1
C  -3.827153   0.233912   0.023523
C  -2.726723  -0.518373   0.022505
C  -1.392512   0.070325  -0.002892
C  -0.264378  -0.655441   0.041664
H  -4.812735  -0.208551   0.075387
H  -3.747437   1.326705   0.040693
H  -2.787965  -1.592920   0.111185
H  -1.351145   1.132511  -0.026409
H  -0.253349  -1.706005   0.042906
H   0.672264  -0.136619   0.087074

