%chk=/home/boittier/MDCM/nms_sampling/butadiene_geom.xyz.dir/butadiene_274.chk
%nproc=8
%mem=16000MB
#p B2PLYPD3/Def2QZVP 

butadiene

0 1
C  -3.846060   0.214361  -0.003854
C  -2.712779  -0.484987   0.064111
C  -1.373953   0.078652   0.033096
C  -0.275250  -0.662134   0.017435
H  -4.812521  -0.269771  -0.073412
H  -3.859440   1.264300   0.016112
H  -2.789905  -1.566259   0.123671
H  -1.259814   1.172197   0.005566
H  -0.311079  -1.742188   0.012089
H   0.705844  -0.211428  -0.071521
