%chk=/home/boittier/MDCM/nms_sampling/butadiene_geom.xyz.dir/butadiene_1211.chk
%nproc=8
%mem=16000MB
#p B2PLYPD3/Def2QZVP 

butadiene

0 1
C  -3.825844   0.251915   0.035351
C  -2.718232  -0.543279   0.010486
C  -1.389199   0.049665  -0.026296
C  -0.269110  -0.633759   0.063501
H  -4.835261  -0.180519   0.166052
H  -3.778086   1.356117   0.066168
H  -2.755605  -1.590611  -0.007745
H  -1.406652   1.135750  -0.075016
H  -0.323626  -1.718672   0.069809
H   0.720999  -0.141419   0.111809
