%chk=/home/boittier/MDCM/nms_sampling/butadiene_geom.xyz.dir/butadiene_1644.chk
%nproc=8
%mem=16000MB
#p B2PLYPD3/Def2QZVP 

butadiene

0 1
C  -3.839044   0.215632   0.039289
C  -2.711901  -0.492857   0.000370
C  -1.386571   0.093814  -0.011872
C  -0.277721  -0.661294   0.049832
H  -4.760344  -0.282376   0.072225
H  -3.829430   1.316713   0.125338
H  -2.679122  -1.594131  -0.032889
H  -1.340260   1.175768  -0.046918
H  -0.400981  -1.763756   0.293001
H   0.784054  -0.305387  -0.032157

