%chk=/home/boittier/MDCM/nms_sampling/butadiene_geom.xyz.dir/butadiene_1286.chk
%nproc=8
%mem=16000MB
#p B2PLYPD3/Def2QZVP 

butadiene

0 1
C  -3.848981   0.200884   0.032112
C  -2.714581  -0.468841   0.015003
C  -1.377555   0.091453   0.007777
C  -0.271603  -0.674927   0.040352
H  -4.821066  -0.326775   0.100819
H  -3.845284   1.276461   0.051096
H  -2.822331  -1.530360  -0.096841
H  -1.224690   1.194010  -0.127967
H  -0.267708  -1.771193   0.222742
H   0.710645  -0.208203   0.002064

