%chk=/home/boittier/MDCM/nms_sampling/butadiene_geom.xyz.dir/butadiene_69.chk
%nproc=8
%mem=16000MB
#p B2PLYPD3/Def2QZVP 

butadiene

0 1
C  -3.835755   0.231683   0.028781
C  -2.716683  -0.511016   0.030549
C  -1.392076   0.068317  -0.003831
C  -0.265814  -0.658078   0.048525
H  -4.801622  -0.200990   0.014616
H  -3.770201   1.307257   0.040967
H  -2.773189  -1.585381   0.021506
H  -1.349063   1.151362  -0.081451
H  -0.268155  -1.731801   0.048834
H   0.668879  -0.130858   0.027157

