%chk=/home/boittier/MDCM/nms_sampling/butadiene_geom.xyz.dir/butadiene_159.chk
%nproc=8
%mem=16000MB
#p B2PLYPD3/Def2QZVP 

butadiene

0 1
C  -3.844613   0.217117   0.030399
C  -2.708821  -0.503641   0.011646
C  -1.380930   0.089082  -0.005497
C  -0.275346  -0.664947   0.049142
H  -4.835583  -0.221156   0.100543
H  -3.817726   1.293246   0.036149
H  -2.742402  -1.578866   0.052457
H  -1.279028   1.186405  -0.011429
H  -0.342051  -1.719029   0.119154
H   0.714579  -0.218524   0.012217

