%chk=/home/boittier/MDCM/nms_sampling/butadiene_geom.xyz.dir/butadiene_512.chk
%nproc=8
%mem=16000MB
#p B2PLYPD3/Def2QZVP 

butadiene

0 1
C  -3.828354   0.226404   0.018020
C  -2.718784  -0.514225   0.036683
C  -1.385096   0.069988   0.021084
C  -0.268187  -0.642765   0.024929
H  -4.826787  -0.192937   0.046166
H  -3.787414   1.309293  -0.007532
H  -2.844003  -1.616928  -0.019084
H  -1.349401   1.149356  -0.052287
H  -0.326469  -1.743869   0.149246
H   0.719480  -0.201333  -0.007339

