%chk=/home/boittier/MDCM/nms_sampling/butadiene_geom.xyz.dir/butadiene_2604.chk
%nproc=8
%mem=16000MB
#p B2PLYPD3/Def2QZVP 

butadiene

0 1
C  -3.818887   0.204808   0.000014
C  -2.711812  -0.498676   0.094746
C  -1.385779   0.134397   0.008775
C  -0.290786  -0.684310   0.032180
H  -4.770857  -0.285984  -0.061503
H  -3.871559   1.266148  -0.130152
H  -2.779675  -1.593341   0.013868
H  -1.366493   1.275970   0.057542
H  -0.383774  -1.770671  -0.147927
H   0.838745  -0.340063  -0.018886
