%chk=/home/boittier/MDCM/nms_sampling/butadiene_geom.xyz.dir/butadiene_278.chk
%nproc=8
%mem=16000MB
#p B2PLYPD3/Def2QZVP 

butadiene

0 1
C  -3.851370   0.228004   0.008881
C  -2.726253  -0.503106   0.043153
C  -1.384071   0.050775   0.039976
C  -0.253199  -0.643229   0.018379
H  -4.838793  -0.218343   0.054631
H  -3.775901   1.328417  -0.130055
H  -2.782520  -1.603063   0.128501
H  -1.283590   1.147797   0.006593
H  -0.262234  -1.703616  -0.034855
H   0.715662  -0.160833   0.006609

