%chk=/home/boittier/MDCM/nms_sampling/butadiene_geom.xyz.dir/butadiene_1678.chk
%nproc=8
%mem=16000MB
#p B2PLYPD3/Def2QZVP 

butadiene

0 1
C  -3.848743   0.223533   0.034178
C  -2.726253  -0.498086   0.021830
C  -1.371124   0.082599  -0.032383
C  -0.257498  -0.662489   0.064141
H  -4.794089  -0.297542   0.022757
H  -3.883144   1.306388   0.122720
H  -2.744736  -1.597935   0.022060
H  -1.308673   1.172037  -0.011800
H  -0.378233  -1.722486   0.112111
H   0.739377  -0.211968   0.005530

