%chk=/home/boittier/MDCM/nms_sampling/butadiene_geom.xyz.dir/butadiene_1968.chk
%nproc=8
%mem=16000MB
#p B2PLYPD3/Def2QZVP 

butadiene

0 1
C  -3.845978   0.223941  -0.050392
C  -2.742174  -0.499789   0.114537
C  -1.376502   0.044001   0.030960
C  -0.247452  -0.649699  -0.005061
H  -4.883305  -0.113406   0.161584
H  -3.795473   1.252084  -0.132402
H  -2.912653  -1.618757   0.166762
H  -1.246450   1.126649   0.208123
H  -0.100850  -1.659220  -0.195252
H   0.659923  -0.041315   0.121391

