%chk=/home/boittier/MDCM/nms_sampling/butadiene_geom.xyz.dir/butadiene_2413.chk
%nproc=8
%mem=16000MB
#p B2PLYPD3/Def2QZVP 

butadiene

0 1
C  -3.874433   0.222314   0.099016
C  -2.729349  -0.492107  -0.030702
C  -1.365067   0.030803  -0.069259
C  -0.227993  -0.638385   0.095335
H  -4.917959  -0.211774   0.092174
H  -3.708998   1.360787  -0.046053
H  -2.854451  -1.566446   0.023795
H  -1.399315   1.150726  -0.166030
H  -0.208344  -1.746549  -0.038474
H   0.626504  -0.096783   0.327145
