%chk=/home/boittier/MDCM/nms_sampling/butadiene_geom.xyz.dir/butadiene_1298.chk
%nproc=8
%mem=16000MB
#p B2PLYPD3/Def2QZVP 

butadiene

0 1
C  -3.846359   0.208945   0.006469
C  -2.727663  -0.462217   0.041272
C  -1.376368   0.067263   0.049920
C  -0.258316  -0.663636   0.005954
H  -4.739030  -0.331083   0.031366
H  -3.854527   1.279018  -0.028636
H  -2.803818  -1.546271   0.059120
H  -1.343535   1.172151  -0.095050
H  -0.323354  -1.768587   0.099840
H   0.749865  -0.199536   0.015847

