%chk=/home/boittier/MDCM/nms_sampling/butadiene_geom.xyz.dir/butadiene_2434.chk
%nproc=8
%mem=16000MB
#p B2PLYPD3/Def2QZVP 

butadiene

0 1
C  -3.800092   0.274496   0.076852
C  -2.705966  -0.561607  -0.031645
C  -1.426895   0.027421  -0.007348
C  -0.266055  -0.618222   0.068109
H  -4.771528  -0.114907   0.138143
H  -3.800181   1.356792  -0.149199
H  -2.730366  -1.589724   0.069096
H  -1.447583   1.083352  -0.139220
H  -0.347536  -1.749995  -0.005209
H   0.684933  -0.110535   0.146727
