%chk=/home/boittier/MDCM/nms_sampling/butadiene_geom.xyz.dir/butadiene_2741.chk
%nproc=8
%mem=16000MB
#p B2PLYPD3/Def2QZVP 

butadiene

0 1
C  -3.819644   0.247787  -0.041572
C  -2.750220  -0.517681   0.117879
C  -1.373288   0.032217   0.035112
C  -0.246906  -0.633969  -0.006933
H  -4.773541  -0.252887  -0.155500
H  -3.825211   1.313761   0.130792
H  -2.965461  -1.622837   0.057044
H  -1.390226   1.110560   0.080075
H  -0.275191  -1.732008   0.092514
H   0.690399  -0.003702  -0.123522
