%chk=/home/boittier/MDCM/nms_sampling/butadiene_geom.xyz.dir/butadiene_517.chk
%nproc=8
%mem=16000MB
#p B2PLYPD3/Def2QZVP 

butadiene

0 1
C  -3.839423   0.232911  -0.010013
C  -2.720576  -0.512210   0.070930
C  -1.389408   0.068858   0.038538
C  -0.263727  -0.657098   0.007857
H  -4.810293  -0.220916  -0.004649
H  -3.755032   1.320979  -0.023231
H  -2.779206  -1.600177   0.062730
H  -1.342047   1.147035   0.008549
H  -0.242126  -1.701713   0.038987
H   0.675581  -0.152962  -0.030502
