%chk=/home/boittier/MDCM/nms_sampling/butadiene_geom.xyz.dir/butadiene_1768.chk
%nproc=8
%mem=16000MB
#p B2PLYPD3/Def2QZVP 

butadiene

0 1
C  -3.843411   0.238886   0.043570
C  -2.728014  -0.513810  -0.021648
C  -1.390043   0.040651  -0.019308
C  -0.250449  -0.642629   0.066348
H  -4.808731  -0.185528   0.227351
H  -3.735269   1.346817   0.091429
H  -2.799223  -1.582610   0.056039
H  -1.409790   1.139237  -0.095968
H  -0.184079  -1.688840   0.123169
H   0.674808  -0.137696   0.105475
