%chk=/home/boittier/MDCM/nms_sampling/butadiene_geom.xyz.dir/butadiene_555.chk
%nproc=8
%mem=16000MB
#p B2PLYPD3/Def2QZVP 

butadiene

0 1
C  -3.835316   0.233965   0.036939
C  -2.722161  -0.511421   0.010881
C  -1.394949   0.066761  -0.002746
C  -0.257576  -0.648255   0.046554
H  -4.797489  -0.242729   0.035213
H  -3.804999   1.331125   0.059799
H  -2.756143  -1.592385   0.019153
H  -1.353239   1.134900  -0.060911
H  -0.313407  -1.744510   0.169350
H   0.739259  -0.192861  -0.003212
