%chk=/home/boittier/MDCM/nms_sampling/butadiene_geom.xyz.dir/butadiene_766.chk
%nproc=8
%mem=16000MB
#p B2PLYPD3/Def2QZVP 

butadiene

0 1
C  -3.833171   0.228391   0.031929
C  -2.726995  -0.509695   0.025665
C  -1.386435   0.060859  -0.009728
C  -0.257546  -0.643577   0.055033
H  -4.823940  -0.197919   0.077311
H  -3.754748   1.315074  -0.004794
H  -2.817144  -1.613995  -0.000758
H  -1.380130   1.135449  -0.047936
H  -0.320121  -1.727250   0.038083
H   0.730507  -0.166635   0.028964

