%chk=/home/boittier/MDCM/nms_sampling/butadiene_geom.xyz.dir/butadiene_185.chk
%nproc=8
%mem=16000MB
#p B2PLYPD3/Def2QZVP 

butadiene

0 1
C  -3.841183   0.214062   0.037761
C  -2.716726  -0.496063   0.020421
C  -1.379447   0.092053  -0.004780
C  -0.266313  -0.663885   0.048128
H  -4.794949  -0.245621  -0.036658
H  -3.866619   1.293351   0.050950
H  -2.793189  -1.579721   0.055238
H  -1.341629   1.190430  -0.067383
H  -0.332206  -1.765519   0.095285
H   0.750340  -0.246995   0.005728

