%chk=/home/boittier/MDCM/nms_sampling/butadiene_geom.xyz.dir/butadiene_1554.chk
%nproc=8
%mem=16000MB
#p B2PLYPD3/Def2QZVP 

butadiene

0 1
C  -3.861602   0.196106  -0.010317
C  -2.714107  -0.466230   0.056444
C  -1.373332   0.086735   0.041365
C  -0.251672  -0.662425   0.017542
H  -4.838671  -0.237682   0.070578
H  -3.873597   1.261873  -0.124381
H  -2.813378  -1.572958   0.189709
H  -1.280551   1.133964   0.133779
H  -0.358348  -1.781208  -0.063249
H   0.738656  -0.249333  -0.084775
