%chk=/home/boittier/MDCM/nms_sampling/butadiene_geom.xyz.dir/butadiene_2675.chk
%nproc=8
%mem=16000MB
#p B2PLYPD3/Def2QZVP 

butadiene

0 1
C  -3.851586   0.182460  -0.038055
C  -2.730594  -0.408000   0.103334
C  -1.369601   0.070522   0.062289
C  -0.262237  -0.684081  -0.043257
H  -4.706910  -0.451664   0.023770
H  -3.937544   1.293853  -0.229122
H  -2.714851  -1.553927   0.253503
H  -1.232886   1.188340   0.294916
H  -0.389190  -1.729224  -0.016267
H   0.739249  -0.236152   0.086323

