%chk=/home/boittier/MDCM/nms_sampling/butadiene_geom.xyz.dir/butadiene_1169.chk
%nproc=8
%mem=16000MB
#p B2PLYPD3/Def2QZVP 

butadiene

0 1
C  -3.820939   0.233199   0.063833
C  -2.719791  -0.527297  -0.007276
C  -1.407815   0.052743  -0.018878
C  -0.257071  -0.625492   0.060597
H  -4.824355  -0.133566  -0.017956
H  -3.713303   1.333058   0.031980
H  -2.856127  -1.594425   0.031890
H  -1.403022   1.124699  -0.109043
H  -0.317420  -1.743543   0.138879
H   0.774164  -0.214041   0.058036

