%chk=/home/boittier/MDCM/nms_sampling/butadiene_geom.xyz.dir/butadiene_1569.chk
%nproc=8
%mem=16000MB
#p B2PLYPD3/Def2QZVP 

butadiene

0 1
C  -3.835660   0.238780   0.052279
C  -2.724832  -0.507534  -0.003444
C  -1.398532   0.059539  -0.025060
C  -0.255052  -0.654239   0.054480
H  -4.826770  -0.215707   0.110838
H  -3.788350   1.298129   0.062583
H  -2.807828  -1.630056   0.002184
H  -1.331934   1.143291  -0.122559
H  -0.154597  -1.731495   0.142555
H   0.665865  -0.121014   0.185735

