%chk=/home/boittier/MDCM/nms_sampling/butadiene_geom.xyz.dir/butadiene_2206.chk
%nproc=8
%mem=16000MB
#p B2PLYPD3/Def2QZVP 

butadiene

0 1
C  -3.824922   0.187685   0.055025
C  -2.697036  -0.484065  -0.006538
C  -1.387480   0.124550  -0.042747
C  -0.289469  -0.667867   0.046349
H  -4.761451  -0.324795   0.062847
H  -3.805768   1.352119   0.118575
H  -2.886435  -1.565005   0.142988
H  -1.338341   1.202875  -0.059529
H  -0.469368  -1.769432   0.138181
H   0.829729  -0.397035   0.326482
