%chk=/home/boittier/MDCM/nms_sampling/butadiene_geom.xyz.dir/butadiene_2361.chk
%nproc=8
%mem=16000MB
#p B2PLYPD3/Def2QZVP 

butadiene

0 1
C  -3.822107   0.220858   0.005420
C  -2.688429  -0.478240   0.083802
C  -1.411465   0.091975   0.047615
C  -0.283445  -0.681194  -0.008832
H  -4.726069  -0.365930  -0.061983
H  -4.001173   1.313504  -0.334911
H  -2.664477  -1.562997   0.222496
H  -1.316703   1.235943   0.088570
H  -0.421027  -1.730500  -0.234053
H   0.792855  -0.310051   0.176217

