%chk=/home/boittier/MDCM/nms_sampling/butadiene_geom.xyz.dir/butadiene_197.chk
%nproc=8
%mem=16000MB
#p B2PLYPD3/Def2QZVP 

butadiene

0 1
C  -3.836865   0.217089   0.024796
C  -2.715783  -0.493566   0.018956
C  -1.390587   0.086132   0.005534
C  -0.265612  -0.662451   0.033549
H  -4.798928  -0.257965   0.121947
H  -3.828028   1.305711  -0.030646
H  -2.762080  -1.594531   0.062613
H  -1.340152   1.172153   0.028753
H  -0.332258  -1.735285   0.123459
H   0.755086  -0.254106   0.049203

