%chk=/home/boittier/MDCM/nms_sampling/butadiene_geom.xyz.dir/butadiene_1439.chk
%nproc=8
%mem=16000MB
#p B2PLYPD3/Def2QZVP 

butadiene

0 1
C  -3.833185   0.231419   0.049784
C  -2.720817  -0.504497  -0.009350
C  -1.383019   0.059276  -0.025486
C  -0.256303  -0.646539   0.059488
H  -4.812561  -0.218508   0.237678
H  -3.882199   1.287283  -0.005046
H  -2.871488  -1.566468  -0.037468
H  -1.381604   1.129961  -0.070013
H  -0.251560  -1.751503   0.140950
H   0.695490  -0.181585   0.170137
