%chk=/home/boittier/MDCM/nms_sampling/butadiene_geom.xyz.dir/butadiene_629.chk
%nproc=8
%mem=16000MB
#p B2PLYPD3/Def2QZVP 

butadiene

0 1
C  -3.831298   0.238823   0.021870
C  -2.715060  -0.519957   0.022478
C  -1.389469   0.064693   0.001806
C  -0.273572  -0.649011   0.039282
H  -4.833513  -0.198731   0.080372
H  -3.794354   1.291878   0.014690
H  -2.767430  -1.588904   0.129001
H  -1.332300   1.144637  -0.000340
H  -0.261867  -1.728101   0.036982
H   0.687152  -0.160207   0.069015

