%chk=/home/boittier/MDCM/nms_sampling/butadiene_geom.xyz.dir/butadiene_2168.chk
%nproc=8
%mem=16000MB
#p B2PLYPD3/Def2QZVP 

butadiene

0 1
C  -3.828763   0.187149   0.016402
C  -2.677784  -0.444332   0.068786
C  -1.398337   0.092446  -0.010482
C  -0.290998  -0.683204   0.020545
H  -4.832292  -0.254763  -0.052990
H  -3.835609   1.289599  -0.191452
H  -2.762540  -1.592133   0.202416
H  -1.339682   1.175770   0.277278
H  -0.369994  -1.789346  -0.064779
H   0.647512  -0.242424   0.093389
