%chk=/home/boittier/MDCM/nms_sampling/butadiene_geom.xyz.dir/butadiene_1186.chk
%nproc=8
%mem=16000MB
#p B2PLYPD3/Def2QZVP 

butadiene

0 1
C  -3.819524   0.252561   0.042155
C  -2.718765  -0.530094  -0.014325
C  -1.396234   0.046993  -0.024452
C  -0.269604  -0.636322   0.069142
H  -4.764744  -0.195045   0.197205
H  -3.795427   1.339228   0.081632
H  -2.774747  -1.613260   0.043454
H  -1.399115   1.082450  -0.035958
H  -0.294506  -1.717634   0.135714
H   0.669869  -0.133792   0.044964

