%chk=/home/boittier/MDCM/nms_sampling/butadiene_geom.xyz.dir/butadiene_747.chk
%nproc=8
%mem=16000MB
#p B2PLYPD3/Def2QZVP 

butadiene

0 1
C  -3.826273   0.227067   0.027971
C  -2.722968  -0.506987   0.020461
C  -1.392477   0.068788  -0.022523
C  -0.264786  -0.649057   0.052086
H  -4.802754  -0.232914   0.116232
H  -3.803306   1.324797   0.052095
H  -2.819732  -1.602296   0.057802
H  -1.334886   1.155853   0.015474
H  -0.277824  -1.732146   0.079351
H   0.707081  -0.204226   0.090794
