%chk=/home/boittier/MDCM/nms_sampling/butadiene_geom.xyz.dir/butadiene_643.chk
%nproc=8
%mem=16000MB
#p B2PLYPD3/Def2QZVP 

butadiene

0 1
C  -3.835741   0.228866   0.001813
C  -2.721356  -0.506066   0.054263
C  -1.385851   0.068960   0.026462
C  -0.263652  -0.648280   0.021120
H  -4.803553  -0.256555  -0.010251
H  -3.805410   1.324683   0.036410
H  -2.764458  -1.599171   0.067027
H  -1.341961   1.151662  -0.042200
H  -0.334760  -1.734999   0.054374
H   0.720736  -0.220157  -0.018340
