%chk=/home/boittier/MDCM/nms_sampling/butadiene_geom.xyz.dir/butadiene_1303.chk
%nproc=8
%mem=16000MB
#p B2PLYPD3/Def2QZVP 

butadiene

0 1
C  -3.817190   0.240448  -0.008020
C  -2.717142  -0.514893   0.063717
C  -1.411458   0.053605   0.058138
C  -0.263837  -0.650397   0.015952
H  -4.779010  -0.213456  -0.064864
H  -3.722613   1.319559  -0.019603
H  -2.767509  -1.573506   0.084800
H  -1.410816   1.151930  -0.066581
H  -0.294902  -1.699776  -0.008595
H   0.687432  -0.150322  -0.159958

