%chk=/home/boittier/MDCM/nms_sampling/butadiene_geom.xyz.dir/butadiene_894.chk
%nproc=8
%mem=16000MB
#p B2PLYPD3/Def2QZVP 

butadiene

0 1
C  -3.850445   0.219604   0.037024
C  -2.716660  -0.483526   0.011163
C  -1.379052   0.071083   0.006322
C  -0.256987  -0.659091   0.039292
H  -4.803683  -0.279472   0.059036
H  -3.897550   1.293654  -0.067811
H  -2.761960  -1.578293   0.114902
H  -1.317270   1.153722   0.009649
H  -0.316110  -1.735496   0.065041
H   0.717652  -0.235061   0.045240

