%chk=/home/boittier/MDCM/nms_sampling/butadiene_geom.xyz.dir/butadiene_1347.chk
%nproc=8
%mem=16000MB
#p B2PLYPD3/Def2QZVP 

butadiene

0 1
C  -3.850385   0.225173   0.059057
C  -2.727132  -0.495777  -0.004564
C  -1.384921   0.068874  -0.014032
C  -0.250410  -0.644353   0.069780
H  -4.777342  -0.279713   0.064571
H  -3.853053   1.284451   0.019225
H  -2.823118  -1.577461  -0.124149
H  -1.253548   1.111681  -0.138465
H  -0.295374  -1.745053   0.191904
H   0.749311  -0.243629  -0.052524

