%chk=/home/boittier/MDCM/nms_sampling/butadiene_geom.xyz.dir/butadiene_289.chk
%nproc=8
%mem=16000MB
#p B2PLYPD3/Def2QZVP 

butadiene

0 1
C  -3.832577   0.219783   0.009709
C  -2.714225  -0.490789   0.045954
C  -1.386581   0.078619   0.041067
C  -0.276560  -0.660445   0.011119
H  -4.765811  -0.290767   0.005694
H  -3.849745   1.286531  -0.100563
H  -2.779560  -1.560195   0.127309
H  -1.292981   1.171398  -0.006538
H  -0.327430  -1.724947   0.009975
H   0.724019  -0.245919   0.020654

