%chk=/home/boittier/MDCM/nms_sampling/butadiene_geom.xyz.dir/butadiene_2540.chk
%nproc=8
%mem=16000MB
#p B2PLYPD3/Def2QZVP 

butadiene

0 1
C  -3.848142   0.169989  -0.041851
C  -2.732933  -0.457072   0.134079
C  -1.367320   0.124801   0.044903
C  -0.271489  -0.690939  -0.004250
H  -4.769964  -0.268737   0.007674
H  -3.725188   1.294914  -0.212928
H  -2.768768  -1.555694   0.067852
H  -1.244354   1.206614   0.138382
H  -0.357029  -1.704970  -0.233611
H   0.684765  -0.294453   0.011086
