%chk=/home/boittier/MDCM/nms_sampling/butadiene_geom.xyz.dir/butadiene_251.chk
%nproc=8
%mem=16000MB
#p B2PLYPD3/Def2QZVP 

butadiene

0 1
C  -3.831793   0.219850   0.024983
C  -2.718851  -0.494753   0.021844
C  -1.384347   0.077212  -0.008631
C  -0.271773  -0.656211   0.047248
H  -4.789366  -0.277650   0.084146
H  -3.812983   1.305898   0.037061
H  -2.754922  -1.594262   0.083891
H  -1.312573   1.167033   0.005288
H  -0.389464  -1.731536   0.065649
H   0.729024  -0.226042   0.045447

