%chk=/home/boittier/MDCM/nms_sampling/butadiene_geom.xyz.dir/butadiene_2302.chk
%nproc=8
%mem=16000MB
#p B2PLYPD3/Def2QZVP 

butadiene

0 1
C  -3.790157   0.272187   0.036841
C  -2.718469  -0.546501   0.034221
C  -1.435226   0.036361  -0.004420
C  -0.254786  -0.633042   0.066006
H  -4.742881  -0.240574  -0.016794
H  -3.672079   1.362833   0.059061
H  -2.810003  -1.549391  -0.161831
H  -1.562186   1.095738  -0.194601
H  -0.276955  -1.727608   0.085606
H   0.656116  -0.128082  -0.097392
