%chk=/home/boittier/MDCM/nms_sampling/butadiene_geom.xyz.dir/butadiene_984.chk
%nproc=8
%mem=16000MB
#p B2PLYPD3/Def2QZVP 

butadiene

0 1
C  -3.869296   0.201673   0.052177
C  -2.723898  -0.467826   0.002374
C  -1.376665   0.093493  -0.018072
C  -0.243224  -0.676849   0.055923
H  -4.835564  -0.275712   0.148114
H  -3.828866   1.282923  -0.073939
H  -2.734941  -1.536879  -0.025872
H  -1.328094   1.139135  -0.045935
H  -0.265249  -1.768290   0.095698
H   0.726209  -0.230484   0.122446
