%chk=/home/boittier/MDCM/nms_sampling/butadiene_geom.xyz.dir/butadiene_818.chk
%nproc=8
%mem=16000MB
#p B2PLYPD3/Def2QZVP 

butadiene

0 1
C  -3.851978   0.224813  -0.000548
C  -2.724526  -0.497021   0.048784
C  -1.381871   0.074164   0.023415
C  -0.252319  -0.656403   0.023692
H  -4.801135  -0.287244   0.030790
H  -3.822108   1.304052   0.045049
H  -2.757835  -1.562435   0.062024
H  -1.344059   1.159633   0.017325
H  -0.327567  -1.751669   0.107386
H   0.770236  -0.211565  -0.069153
