%chk=/home/boittier/MDCM/nms_sampling/butadiene_geom.xyz.dir/butadiene_1146.chk
%nproc=8
%mem=16000MB
#p B2PLYPD3/Def2QZVP 

butadiene

0 1
C  -3.846279   0.241692  -0.022367
C  -2.736102  -0.513236   0.072571
C  -1.377316   0.033069   0.037635
C  -0.234406  -0.630258   0.001035
H  -4.843421  -0.188093   0.017835
H  -3.785870   1.277786  -0.004636
H  -2.862889  -1.589857   0.235028
H  -1.403559   1.120949   0.071512
H  -0.290096  -1.712496  -0.065029
H   0.696797  -0.124957   0.062288
