%chk=/home/boittier/MDCM/nms_sampling/butadiene_geom.xyz.dir/butadiene_937.chk
%nproc=8
%mem=16000MB
#p B2PLYPD3/Def2QZVP 

butadiene

0 1
C  -3.842837   0.217846   0.031184
C  -2.709777  -0.499662   0.018566
C  -1.379215   0.085184   0.006050
C  -0.270285  -0.657246   0.041549
H  -4.816388  -0.266734   0.066209
H  -3.841328   1.299887   0.037536
H  -2.806460  -1.565078  -0.037114
H  -1.298146   1.165285  -0.093402
H  -0.353175  -1.750663   0.167795
H   0.720812  -0.242867  -0.000953

