%chk=/home/boittier/MDCM/nms_sampling/butadiene_geom.xyz.dir/butadiene_2752.chk
%nproc=8
%mem=16000MB
#p B2PLYPD3/Def2QZVP 

butadiene

0 1
C  -3.861877   0.230515   0.076397
C  -2.750732  -0.515576  -0.044715
C  -1.381407   0.021557  -0.014333
C  -0.227576  -0.620828   0.088404
H  -4.915319  -0.055923   0.101721
H  -3.725885   1.288186   0.129371
H  -2.795832  -1.626739  -0.083826
H  -1.208003   1.076242  -0.328349
H  -0.239936  -1.653197   0.178383
H   0.738316  -0.059807  -0.003161
