%chk=/home/boittier/MDCM/nms_sampling/butadiene_geom.xyz.dir/butadiene_1991.chk
%nproc=8
%mem=16000MB
#p B2PLYPD3/Def2QZVP 

butadiene

0 1
C  -3.862795   0.218868  -0.012510
C  -2.715842  -0.479631   0.069922
C  -1.384704   0.080519   0.117591
C  -0.267501  -0.686101  -0.030458
H  -4.794345  -0.304472  -0.108102
H  -3.879748   1.295641  -0.200594
H  -2.817048  -1.531078   0.136838
H  -1.250943   1.195329  -0.112032
H  -0.042240  -1.755854  -0.008963
H   0.735334  -0.094019  -0.114359

