%chk=/home/boittier/MDCM/nms_sampling/butadiene_geom.xyz.dir/butadiene_243.chk
%nproc=8
%mem=16000MB
#p B2PLYPD3/Def2QZVP 

butadiene

0 1
C  -3.851955   0.212959   0.036143
C  -2.719317  -0.488218   0.017757
C  -1.382990   0.090333   0.004527
C  -0.258807  -0.668069   0.045492
H  -4.797636  -0.244167   0.080196
H  -3.847834   1.279103  -0.061317
H  -2.766270  -1.580737   0.009372
H  -1.297683   1.167367  -0.040930
H  -0.283079  -1.744465   0.076439
H   0.730808  -0.235171   0.016887
