%chk=/home/boittier/MDCM/nms_sampling/butadiene_geom.xyz.dir/butadiene_646.chk
%nproc=8
%mem=16000MB
#p B2PLYPD3/Def2QZVP 

butadiene

0 1
C  -3.833512   0.228014   0.028814
C  -2.709596  -0.505035   0.031233
C  -1.388522   0.066129  -0.008674
C  -0.272423  -0.651213   0.051345
H  -4.808805  -0.232996  -0.018980
H  -3.820173   1.312827   0.065705
H  -2.815243  -1.608323   0.018885
H  -1.311452   1.159382  -0.034327
H  -0.311445  -1.721155   0.095682
H   0.699389  -0.184486  -0.039671

