%chk=/home/boittier/MDCM/nms_sampling/butadiene_geom.xyz.dir/butadiene_2832.chk
%nproc=8
%mem=16000MB
#p B2PLYPD3/Def2QZVP 

butadiene

0 1
C  -3.820788   0.263152   0.003027
C  -2.712110  -0.554032   0.075121
C  -1.421445   0.049069   0.038117
C  -0.268132  -0.631941   0.012239
H  -4.865818  -0.120956  -0.082863
H  -3.554980   1.330077  -0.150053
H  -2.749604  -1.647401   0.189264
H  -1.498254   1.162586  -0.021347
H  -0.173349  -1.746550  -0.204732
H   0.708245  -0.133222   0.089767
