%chk=/home/boittier/MDCM/nms_sampling/butadiene_geom.xyz.dir/butadiene_501.chk
%nproc=8
%mem=16000MB
#p B2PLYPD3/Def2QZVP 

butadiene

0 1
C  -3.835086   0.230398  -0.003631
C  -2.718983  -0.509518   0.054246
C  -1.388490   0.067032   0.037125
C  -0.263634  -0.657980   0.019152
H  -4.808228  -0.208446   0.038219
H  -3.787600   1.322026   0.002847
H  -2.787877  -1.598898   0.047096
H  -1.329727   1.144509  -0.037485
H  -0.270392  -1.712134   0.052774
H   0.641857  -0.128492  -0.055883
