%chk=/home/boittier/MDCM/nms_sampling/butadiene_geom.xyz.dir/butadiene_2788.chk
%nproc=8
%mem=16000MB
#p B2PLYPD3/Def2QZVP 

butadiene

0 1
C  -3.819374   0.240385  -0.021573
C  -2.685202  -0.515757   0.103202
C  -1.399828   0.052751   0.026141
C  -0.304432  -0.651123   0.013322
H  -4.835362  -0.234853  -0.159608
H  -3.686045   1.306072  -0.029051
H  -2.696366  -1.515695   0.114161
H  -1.283406   1.123573   0.187011
H  -0.366558  -1.734984  -0.011897
H   0.555248  -0.091824  -0.194924
