%chk=/home/boittier/MDCM/nms_sampling/butadiene_geom.xyz.dir/butadiene_2342.chk
%nproc=8
%mem=16000MB
#p B2PLYPD3/Def2QZVP 

butadiene

0 1
C  -3.776552   0.255942   0.088012
C  -2.703753  -0.554206  -0.065387
C  -1.423343   0.038357  -0.057402
C  -0.285538  -0.628085   0.078695
H  -4.808835  -0.096757   0.312899
H  -3.745133   1.322912  -0.015428
H  -2.994995  -1.588338  -0.017001
H  -1.402533   1.098194   0.033064
H  -0.261495  -1.684519   0.324905
H   0.666476  -0.058911   0.180674
