%chk=/home/boittier/MDCM/nms_sampling/butadiene_geom.xyz.dir/butadiene_1309.chk
%nproc=8
%mem=16000MB
#p B2PLYPD3/Def2QZVP 

butadiene

0 1
C  -3.836878   0.247660   0.000786
C  -2.711077  -0.534106   0.063927
C  -1.398537   0.046720   0.044106
C  -0.256003  -0.627193   0.001735
H  -4.865205  -0.133689  -0.046044
H  -3.778335   1.313986  -0.150343
H  -2.771024  -1.632918   0.182333
H  -1.365980   1.121129   0.091123
H  -0.313253  -1.702350  -0.032224
H   0.715211  -0.205796   0.000406
