%chk=/home/boittier/MDCM/nms_sampling/butadiene_geom.xyz.dir/butadiene_1760.chk
%nproc=8
%mem=16000MB
#p B2PLYPD3/Def2QZVP 

butadiene

0 1
C  -3.813511   0.246616  -0.002961
C  -2.727402  -0.525191   0.043113
C  -1.400600   0.056129   0.056573
C  -0.268278  -0.639009   0.008331
H  -4.782152  -0.227114   0.100522
H  -3.770881   1.297018  -0.139456
H  -2.807308  -1.631870   0.190626
H  -1.321636   1.143655   0.006144
H  -0.303182  -1.711056  -0.070750
H   0.700417  -0.157272   0.022684
