%chk=/home/boittier/MDCM/nms_sampling/butadiene_geom.xyz.dir/butadiene_2815.chk
%nproc=8
%mem=16000MB
#p B2PLYPD3/Def2QZVP 

butadiene

0 1
C  -3.824830   0.197894  -0.035880
C  -2.699597  -0.485151   0.121646
C  -1.385448   0.124265   0.043751
C  -0.311872  -0.694291  -0.027817
H  -4.748488  -0.303143  -0.185297
H  -3.869546   1.335966   0.074828
H  -2.728289  -1.506153   0.022926
H  -1.287169   1.240906   0.076134
H  -0.247191  -1.788059   0.170897
H   0.722534  -0.263973  -0.049038
