%chk=/home/boittier/MDCM/nms_sampling/butadiene_geom.xyz.dir/butadiene_2828.chk
%nproc=8
%mem=16000MB
#p B2PLYPD3/Def2QZVP 

butadiene

0 1
C  -3.843203   0.220455  -0.032591
C  -2.728321  -0.464952   0.079692
C  -1.379770   0.085773   0.111449
C  -0.267455  -0.678079  -0.047143
H  -4.676313  -0.447131   0.055318
H  -3.983525   1.271583  -0.224516
H  -2.638551  -1.505332   0.207927
H  -1.322516   1.189471  -0.022519
H  -0.400923  -1.780008  -0.062966
H   0.845580  -0.253377   0.083018

