%chk=/home/boittier/MDCM/nms_sampling/butadiene_geom.xyz.dir/butadiene_237.chk
%nproc=8
%mem=16000MB
#p B2PLYPD3/Def2QZVP 

butadiene

0 1
C  -3.835900   0.214360   0.039290
C  -2.715204  -0.491716   0.021543
C  -1.388040   0.084685   0.001509
C  -0.273136  -0.658789   0.043484
H  -4.817735  -0.250205  -0.024567
H  -3.818599   1.292471   0.037400
H  -2.736123  -1.574347   0.001635
H  -1.281708   1.154028  -0.123072
H  -0.342506  -1.762145   0.113494
H   0.728892  -0.239146   0.032221
