%chk=/home/boittier/MDCM/nms_sampling/butadiene_geom.xyz.dir/butadiene_1413.chk
%nproc=8
%mem=16000MB
#p B2PLYPD3/Def2QZVP 

butadiene

0 1
C  -3.815867   0.260142   0.003032
C  -2.726687  -0.540917   0.056904
C  -1.405459   0.052638   0.050978
C  -0.254670  -0.637912   0.004081
H  -4.780628  -0.246234  -0.075243
H  -3.804705   1.354037  -0.106424
H  -2.788714  -1.595936   0.164995
H  -1.372952   1.109485   0.042140
H  -0.274215  -1.718442   0.012960
H   0.657635  -0.143871  -0.062888

