%chk=/home/boittier/MDCM/nms_sampling/butadiene_geom.xyz.dir/butadiene_727.chk
%nproc=8
%mem=16000MB
#p B2PLYPD3/Def2QZVP 

butadiene

0 1
C  -3.835065   0.219784   0.016358
C  -2.717555  -0.490525   0.030593
C  -1.386666   0.084817   0.019351
C  -0.274547  -0.668487   0.027005
H  -4.791516  -0.293815   0.031051
H  -3.811283   1.293414   0.035473
H  -2.735374  -1.576781   0.042004
H  -1.296796   1.184763  -0.023753
H  -0.305991  -1.751469   0.159027
H   0.693153  -0.198017  -0.035338

