%chk=/home/boittier/MDCM/nms_sampling/butadiene_geom.xyz.dir/butadiene_1474.chk
%nproc=8
%mem=16000MB
#p B2PLYPD3/Def2QZVP 

butadiene

0 1
C  -3.860460   0.221230  -0.011018
C  -2.719372  -0.494133   0.072511
C  -1.370908   0.085524   0.041091
C  -0.249801  -0.663945   0.003697
H  -4.813238  -0.251309  -0.043729
H  -3.962266   1.259140   0.031297
H  -2.771625  -1.596354   0.089600
H  -1.293699   1.153657  -0.064622
H  -0.350768  -1.723725   0.018420
H   0.775192  -0.231737   0.027014

