%chk=/home/boittier/MDCM/nms_sampling/butadiene_geom.xyz.dir/butadiene_944.chk
%nproc=8
%mem=16000MB
#p B2PLYPD3/Def2QZVP 

butadiene

0 1
C  -3.844826   0.234928   0.001853
C  -2.724531  -0.504692   0.058960
C  -1.390423   0.053170   0.020642
C  -0.251638  -0.647267   0.024805
H  -4.819811  -0.219429  -0.003535
H  -3.802756   1.314862  -0.028905
H  -2.758284  -1.605136   0.091511
H  -1.313424   1.132073   0.044625
H  -0.250338  -1.735190   0.008535
H   0.671258  -0.141471  -0.038686

