%chk=/home/boittier/MDCM/nms_sampling/butadiene_geom.xyz.dir/butadiene_744.chk
%nproc=8
%mem=16000MB
#p B2PLYPD3/Def2QZVP 

butadiene

0 1
C  -3.852330   0.214775   0.031946
C  -2.715267  -0.486041   0.015264
C  -1.373207   0.075439   0.001028
C  -0.264747  -0.667134   0.039858
H  -4.805509  -0.267908   0.048143
H  -3.819372   1.286967   0.046089
H  -2.818349  -1.565929   0.019652
H  -1.295063   1.176767  -0.030811
H  -0.302363  -1.726642   0.186808
H   0.681835  -0.155871  -0.002581
