%chk=/home/boittier/MDCM/nms_sampling/butadiene_geom.xyz.dir/butadiene_507.chk
%nproc=8
%mem=16000MB
#p B2PLYPD3/Def2QZVP 

butadiene

0 1
C  -3.838710   0.229540   0.012519
C  -2.723380  -0.503324   0.042478
C  -1.380639   0.058276   0.021200
C  -0.264991  -0.649790   0.022655
H  -4.828620  -0.229878   0.047987
H  -3.768705   1.294944  -0.065650
H  -2.820033  -1.572904   0.122184
H  -1.329601   1.129565   0.002125
H  -0.254083  -1.733424  -0.009821
H   0.674252  -0.126898   0.072676

