%chk=/home/boittier/MDCM/nms_sampling/butadiene_geom.xyz.dir/butadiene_1089.chk
%nproc=8
%mem=16000MB
#p B2PLYPD3/Def2QZVP 

butadiene

0 1
C  -3.839421   0.202103   0.045518
C  -2.715319  -0.484621  -0.004998
C  -1.388145   0.097061  -0.006460
C  -0.270812  -0.666855   0.062882
H  -4.804118  -0.281814   0.131018
H  -3.717449   1.302584   0.002462
H  -2.753088  -1.549812   0.052780
H  -1.321452   1.192873  -0.123090
H  -0.409867  -1.769658   0.024719
H   0.754454  -0.251321   0.075887

