%chk=/home/boittier/MDCM/nms_sampling/butadiene_geom.xyz.dir/butadiene_1795.chk
%nproc=8
%mem=16000MB
#p B2PLYPD3/Def2QZVP 

butadiene

0 1
C  -3.860534   0.192307   0.046718
C  -2.730806  -0.473364   0.002387
C  -1.364970   0.104027  -0.035013
C  -0.254306  -0.674399   0.070006
H  -4.826911  -0.288587   0.068970
H  -3.811900   1.269140   0.103206
H  -2.814687  -1.529115   0.072970
H  -1.242756   1.201869  -0.084711
H  -0.310313  -1.771379   0.043143
H   0.709245  -0.244161   0.119831
