%chk=/home/boittier/MDCM/nms_sampling/butadiene_geom.xyz.dir/butadiene_353.chk
%nproc=8
%mem=16000MB
#p B2PLYPD3/Def2QZVP 

butadiene

0 1
C  -3.840734   0.215971   0.031802
C  -2.709190  -0.490038   0.007953
C  -1.379724   0.078489  -0.012513
C  -0.278085  -0.663323   0.051770
H  -4.797830  -0.233399   0.148646
H  -3.810129   1.304248   0.029708
H  -2.753615  -1.587234   0.050160
H  -1.342981   1.157386  -0.002686
H  -0.320853  -1.753037   0.110921
H   0.692817  -0.190047   0.058527

