%chk=/home/boittier/MDCM/nms_sampling/butadiene_geom.xyz.dir/butadiene_1249.chk
%nproc=8
%mem=16000MB
#p B2PLYPD3/Def2QZVP 

butadiene

0 1
C  -3.841616   0.231912  -0.008116
C  -2.722800  -0.490094   0.054083
C  -1.387952   0.054816   0.067034
C  -0.255579  -0.648059  -0.014400
H  -4.800837  -0.279207   0.083555
H  -3.909004   1.262747  -0.161846
H  -2.775622  -1.541738   0.166562
H  -1.321349   1.123921   0.019078
H  -0.270193  -1.736775   0.002848
H   0.762939  -0.219000   0.076605
