%chk=/home/boittier/MDCM/nms_sampling/butadiene_geom.xyz.dir/butadiene_1545.chk
%nproc=8
%mem=16000MB
#p B2PLYPD3/Def2QZVP 

butadiene

0 1
C  -3.836756   0.210911  -0.006339
C  -2.717367  -0.481985   0.057677
C  -1.387734   0.101717   0.036513
C  -0.277731  -0.676810   0.018938
H  -4.789905  -0.287395   0.107355
H  -3.868759   1.287867  -0.127438
H  -2.665159  -1.577751   0.128219
H  -1.251076   1.176679   0.056581
H  -0.291353  -1.767495  -0.083795
H   0.688976  -0.257056   0.005806

