%chk=/home/boittier/MDCM/nms_sampling/butadiene_geom.xyz.dir/butadiene_673.chk
%nproc=8
%mem=16000MB
#p B2PLYPD3/Def2QZVP 

butadiene

0 1
C  -3.836218   0.223010   0.040371
C  -2.711772  -0.493995   0.000356
C  -1.390103   0.081437  -0.006556
C  -0.274184  -0.666996   0.059574
H  -4.800860  -0.273081   0.135639
H  -3.819446   1.291121   0.000856
H  -2.727707  -1.565720   0.056834
H  -1.317912   1.173276  -0.085313
H  -0.307107  -1.760671   0.034644
H   0.703534  -0.186473   0.065594
