%chk=/home/boittier/MDCM/nms_sampling/butadiene_geom.xyz.dir/butadiene_2169.chk
%nproc=8
%mem=16000MB
#p B2PLYPD3/Def2QZVP 

butadiene

0 1
C  -3.807187   0.242400  -0.017388
C  -2.729410  -0.554860   0.079599
C  -1.414112   0.058827   0.055173
C  -0.258054  -0.614105   0.005076
H  -4.829003  -0.154940   0.039402
H  -3.649378   1.434467  -0.186017
H  -2.942048  -1.655831   0.246839
H  -1.383284   1.090588  -0.002996
H  -0.246496  -1.705535  -0.297057
H   0.766904  -0.233707   0.115528
