%chk=/home/boittier/MDCM/nms_sampling/butadiene_geom.xyz.dir/butadiene_856.chk
%nproc=8
%mem=16000MB
#p B2PLYPD3/Def2QZVP 

butadiene

0 1
C  -3.837200   0.218494  -0.006120
C  -2.711428  -0.494536   0.070850
C  -1.385659   0.082767   0.032553
C  -0.274421  -0.665679   0.010582
H  -4.812722  -0.224776  -0.026676
H  -3.850898   1.272316   0.001072
H  -2.751672  -1.569771   0.042192
H  -1.288815   1.177225  -0.013597
H  -0.289692  -1.750088   0.053516
H   0.676085  -0.201176  -0.019195

