%chk=/home/boittier/MDCM/nms_sampling/butadiene_geom.xyz.dir/butadiene_777.chk
%nproc=8
%mem=16000MB
#p B2PLYPD3/Def2QZVP 

butadiene

0 1
C  -3.851200   0.211249   0.016440
C  -2.723472  -0.483372   0.047000
C  -1.380054   0.083918   0.017831
C  -0.257389  -0.662567   0.026854
H  -4.823496  -0.257000  -0.040285
H  -3.828164   1.297312  -0.032154
H  -2.756804  -1.573474   0.063106
H  -1.319790   1.145981   0.020950
H  -0.280556  -1.771794   0.074878
H   0.735053  -0.226812  -0.047819

