%chk=/home/boittier/MDCM/nms_sampling/butadiene_geom.xyz.dir/butadiene_2094.chk
%nproc=8
%mem=16000MB
#p B2PLYPD3/Def2QZVP 

butadiene

0 1
C  -3.882013   0.189225   0.064530
C  -2.744293  -0.445021  -0.031300
C  -1.361490   0.080768  -0.016425
C  -0.238343  -0.669691   0.092545
H  -4.813235  -0.364563  -0.030369
H  -3.810905   1.249708   0.235795
H  -2.628893  -1.489928  -0.019671
H  -1.171155   1.231333  -0.266077
H  -0.376775  -1.759525   0.191467
H   0.711454  -0.288906  -0.157502
