%chk=/home/boittier/MDCM/nms_sampling/butadiene_geom.xyz.dir/butadiene_2002.chk
%nproc=8
%mem=16000MB
#p B2PLYPD3/Def2QZVP 

butadiene

0 1
C  -3.830570   0.188596   0.088830
C  -2.694251  -0.477343  -0.021541
C  -1.382051   0.136911  -0.069694
C  -0.283228  -0.675194   0.080757
H  -4.803927  -0.289004   0.163981
H  -3.868530   1.220834  -0.085238
H  -2.904471  -1.616640  -0.097470
H  -1.277339   1.174033   0.006724
H  -0.518738  -1.781711   0.178591
H   0.812163  -0.362024   0.221277

