%chk=/home/boittier/MDCM/nms_sampling/butadiene_geom.xyz.dir/butadiene_1376.chk
%nproc=8
%mem=16000MB
#p B2PLYPD3/Def2QZVP 

butadiene

0 1
C  -3.848001   0.238142   0.039699
C  -2.740751  -0.527319   0.016827
C  -1.375436   0.046376   0.010777
C  -0.238593  -0.629336   0.039567
H  -4.836855  -0.144917   0.033026
H  -3.844938   1.309898  -0.040793
H  -2.843459  -1.610371  -0.056649
H  -1.304095   1.130724  -0.053542
H  -0.269507  -1.710832   0.194329
H   0.721295  -0.147469  -0.051842

