%chk=/home/boittier/MDCM/nms_sampling/butadiene_geom.xyz.dir/butadiene_2680.chk
%nproc=8
%mem=16000MB
#p B2PLYPD3/Def2QZVP 

butadiene

0 1
C  -3.875173   0.197706   0.040995
C  -2.727384  -0.474678  -0.016796
C  -1.365898   0.086620  -0.043109
C  -0.257477  -0.673602   0.069706
H  -4.813222  -0.233430   0.228044
H  -3.922643   1.278478   0.162374
H  -2.690730  -1.466632  -0.002925
H  -1.173010   1.178594   0.022634
H  -0.228913  -1.734929   0.268641
H   0.726564  -0.237021   0.048638

