%chk=/home/boittier/MDCM/nms_sampling/butadiene_geom.xyz.dir/butadiene_1277.chk
%nproc=8
%mem=16000MB
#p B2PLYPD3/Def2QZVP 

butadiene

0 1
C  -3.856497   0.205122   0.052839
C  -2.718539  -0.479036   0.001011
C  -1.369711   0.104297  -0.022738
C  -0.269233  -0.677564   0.059970
H  -4.855224  -0.307991   0.024639
H  -3.773954   1.295975   0.003211
H  -2.692664  -1.555301   0.086794
H  -1.353080   1.166729  -0.010135
H  -0.321067  -1.766351   0.085262
H   0.741438  -0.251246   0.057769
