%chk=/home/boittier/MDCM/nms_sampling/butadiene_geom.xyz.dir/butadiene_1319.chk
%nproc=8
%mem=16000MB
#p B2PLYPD3/Def2QZVP 

butadiene

0 1
C  -3.842621   0.212830  -0.001888
C  -2.724589  -0.473102   0.044285
C  -1.380756   0.069835   0.019397
C  -0.260459  -0.656439   0.020662
H  -4.763051  -0.346265   0.101402
H  -3.929331   1.304288   0.001656
H  -2.803421  -1.530672   0.179258
H  -1.253773   1.171109   0.026633
H  -0.292780  -1.759107  -0.024492
H   0.736928  -0.265332   0.098433

