%chk=/home/boittier/MDCM/nms_sampling/butadiene_geom.xyz.dir/butadiene_15.chk
%nproc=8
%mem=16000MB
#p B2PLYPD3/Def2QZVP 

butadiene

0 1
C  -3.838389   0.227334   0.023122
C  -2.723813  -0.508103   0.034699
C  -1.388407   0.065344   0.017204
C  -0.267053  -0.647828   0.024645
H  -4.809148  -0.211706  -0.008221
H  -3.735196   1.324806  -0.077160
H  -2.738327  -1.603116   0.151859
H  -1.325344   1.155246   0.029455
H  -0.293477  -1.740827   0.016172
H   0.704846  -0.178994   0.050842
