%chk=/home/boittier/MDCM/nms_sampling/butadiene_geom.xyz.dir/butadiene_2281.chk
%nproc=8
%mem=16000MB
#p B2PLYPD3/Def2QZVP 

butadiene

0 1
C  -3.814963   0.278098   0.055907
C  -2.699782  -0.546169   0.033021
C  -1.399439   0.043829  -0.002009
C  -0.276941  -0.635117   0.037188
H  -4.772325  -0.284780  -0.118543
H  -3.871437   1.336795  -0.127055
H  -2.813537  -1.709037   0.068519
H  -1.369337   1.132285  -0.116329
H  -0.325833  -1.690628  -0.052542
H   0.639510  -0.127586   0.182157
