%chk=/home/boittier/MDCM/nms_sampling/butadiene_geom.xyz.dir/butadiene_1223.chk
%nproc=8
%mem=16000MB
#p B2PLYPD3/Def2QZVP 

butadiene

0 1
C  -3.828945   0.216994  -0.027725
C  -2.700609  -0.491760   0.062275
C  -1.399225   0.094167   0.070392
C  -0.278930  -0.670341  -0.004156
H  -4.811102  -0.284278  -0.002166
H  -3.820311   1.301433   0.050690
H  -2.773904  -1.569800   0.170082
H  -1.365427   1.205988  -0.017500
H  -0.291756  -1.759273   0.060341
H   0.738850  -0.274661  -0.123865

