%chk=/home/boittier/MDCM/nms_sampling/butadiene_geom.xyz.dir/butadiene_2012.chk
%nproc=8
%mem=16000MB
#p B2PLYPD3/Def2QZVP 

butadiene

0 1
C  -3.805288   0.254721   0.044876
C  -2.714107  -0.539884   0.016638
C  -1.404103   0.048662  -0.078775
C  -0.266765  -0.629899   0.095592
H  -4.760112  -0.213848   0.122213
H  -3.761745   1.340162   0.110954
H  -2.870822  -1.608467  -0.004288
H  -1.388930   1.102829   0.067984
H  -0.388291  -1.805886   0.030532
H   0.633257  -0.065682   0.076851
