%chk=/home/boittier/MDCM/nms_sampling/butadiene_geom.xyz.dir/butadiene_1235.chk
%nproc=8
%mem=16000MB
#p B2PLYPD3/Def2QZVP 

butadiene

0 1
C  -3.849332   0.202104  -0.004727
C  -2.721224  -0.469878   0.059446
C  -1.369136   0.088836   0.065310
C  -0.277912  -0.677114   0.010330
H  -4.772791  -0.310004  -0.045410
H  -3.805261   1.264422  -0.070276
H  -2.782640  -1.541043   0.085685
H  -1.255040   1.193557  -0.067329
H  -0.308014  -1.735617  -0.003665
H   0.712491  -0.184648  -0.137955

