%chk=/home/boittier/MDCM/nms_sampling/butadiene_geom.xyz.dir/butadiene_1366.chk
%nproc=8
%mem=16000MB
#p B2PLYPD3/Def2QZVP 

butadiene

0 1
C  -3.832771   0.230583  -0.026362
C  -2.709278  -0.509091   0.075644
C  -1.396064   0.045334   0.051009
C  -0.268445  -0.648963   0.005949
H  -4.817264  -0.165371   0.038951
H  -3.699078   1.333357   0.023685
H  -2.819040  -1.575087   0.029959
H  -1.368848   1.154950   0.014681
H  -0.252904  -1.695348   0.084162
H   0.618776  -0.101302  -0.134169

