%chk=/home/boittier/MDCM/nms_sampling/butadiene_geom.xyz.dir/butadiene_2256.chk
%nproc=8
%mem=16000MB
#p B2PLYPD3/Def2QZVP 

butadiene

0 1
C  -3.869374   0.208721  -0.047339
C  -2.719425  -0.467199   0.099017
C  -1.385344   0.098039   0.072590
C  -0.241228  -0.675134  -0.006359
H  -4.743883  -0.334711   0.057258
H  -4.000329   1.224217  -0.009199
H  -2.687700  -1.534997  -0.012645
H  -1.279387   1.222911   0.015041
H  -0.375496  -1.736727   0.053847
H   0.866255  -0.377869  -0.192795

