%chk=/home/boittier/MDCM/nms_sampling/butadiene_geom.xyz.dir/butadiene_1662.chk
%nproc=8
%mem=16000MB
#p B2PLYPD3/Def2QZVP 

butadiene

0 1
C  -3.844276   0.235553   0.022139
C  -2.726901  -0.515477   0.035004
C  -1.401477   0.055159   0.016855
C  -0.248964  -0.640117   0.045279
H  -4.844689  -0.151867   0.030021
H  -3.744028   1.308119  -0.011241
H  -2.739527  -1.617107  -0.052510
H  -1.314278   1.131791  -0.070678
H  -0.207790  -1.730329   0.094068
H   0.706024  -0.180613  -0.116752

