%chk=/home/boittier/MDCM/nms_sampling/butadiene_geom.xyz.dir/butadiene_269.chk
%nproc=8
%mem=16000MB
#p B2PLYPD3/Def2QZVP 

butadiene

0 1
C  -3.832207   0.213669   0.004916
C  -2.715972  -0.487945   0.053093
C  -1.388347   0.083590   0.038767
C  -0.273079  -0.663681   0.012584
H  -4.803365  -0.265720   0.049179
H  -3.768478   1.302172  -0.152202
H  -2.762809  -1.561036   0.098639
H  -1.332499   1.141333   0.060300
H  -0.326026  -1.745895  -0.000030
H   0.691523  -0.216511  -0.009829

