%chk=/home/boittier/MDCM/nms_sampling/butadiene_geom.xyz.dir/butadiene_2843.chk
%nproc=8
%mem=16000MB
#p B2PLYPD3/Def2QZVP 

butadiene

0 1
C  -3.884422   0.220628   0.067059
C  -2.725131  -0.504406  -0.005244
C  -1.364102   0.061726  -0.055656
C  -0.227023  -0.666525   0.050251
H  -4.952834  -0.171567   0.050749
H  -3.721330   1.336634   0.049131
H  -2.775014  -1.513156   0.080336
H  -1.430895   1.130910  -0.001310
H  -0.232748  -1.696770   0.175297
H   0.690403  -0.056586   0.321241

