%chk=/home/boittier/MDCM/nms_sampling/butadiene_geom.xyz.dir/butadiene_2065.chk
%nproc=8
%mem=16000MB
#p B2PLYPD3/Def2QZVP 

butadiene

0 1
C  -3.859388   0.239910   0.045240
C  -2.718607  -0.506466  -0.000990
C  -1.397631   0.020339  -0.028977
C  -0.237553  -0.645224   0.072417
H  -4.917485  -0.114799   0.063220
H  -3.768292   1.354052   0.321413
H  -2.804431  -1.576283  -0.128165
H  -1.351454   1.040600  -0.369110
H  -0.074212  -1.615619   0.193411
H   0.664606  -0.039652   0.120641

