%chk=/home/boittier/MDCM/nms_sampling/butadiene_geom.xyz.dir/butadiene_1769.chk
%nproc=8
%mem=16000MB
#p B2PLYPD3/Def2QZVP 

butadiene

0 1
C  -3.839854   0.246648   0.028143
C  -2.732387  -0.519031   0.012624
C  -1.379820   0.054418  -0.001656
C  -0.253214  -0.648019   0.054331
H  -4.800925  -0.246497   0.146678
H  -3.861569   1.285654   0.101746
H  -2.786777  -1.569945  -0.115494
H  -1.304302   1.117035  -0.132877
H  -0.268976  -1.727508   0.204873
H   0.673167  -0.095122  -0.034615
