%chk=/home/boittier/MDCM/nms_sampling/butadiene_geom.xyz.dir/butadiene_653.chk
%nproc=8
%mem=16000MB
#p B2PLYPD3/Def2QZVP 

butadiene

0 1
C  -3.838160   0.215264   0.032786
C  -2.717159  -0.500427   0.020084
C  -1.385335   0.086772   0.018242
C  -0.269740  -0.659952   0.034234
H  -4.799085  -0.234280   0.006355
H  -3.768173   1.303363  -0.014024
H  -2.801619  -1.589881   0.039950
H  -1.312227   1.182747  -0.088065
H  -0.327651  -1.760566   0.108046
H   0.714086  -0.204593   0.003169
