%chk=/home/boittier/MDCM/nms_sampling/butadiene_geom.xyz.dir/butadiene_2383.chk
%nproc=8
%mem=16000MB
#p B2PLYPD3/Def2QZVP 

butadiene

0 1
C  -3.860088   0.185921   0.036950
C  -2.676566  -0.490736  -0.016788
C  -1.373237   0.145789   0.014490
C  -0.299035  -0.699454   0.067262
H  -4.844513  -0.193232  -0.017150
H  -3.853559   1.289434   0.170695
H  -2.677515  -1.559805   0.155526
H  -1.308231   1.297942  -0.139616
H  -0.394206  -1.771214   0.109802
H   0.744632  -0.341982  -0.187413

