%chk=/home/boittier/MDCM/nms_sampling/butadiene_geom.xyz.dir/butadiene_1945.chk
%nproc=8
%mem=16000MB
#p B2PLYPD3/Def2QZVP 

butadiene

0 1
C  -3.867692   0.170459   0.037298
C  -2.702283  -0.429476   0.027684
C  -1.368955   0.094842  -0.012679
C  -0.266442  -0.681638   0.029914
H  -4.835140  -0.250798  -0.168759
H  -3.906335   1.205314   0.252881
H  -2.778628  -1.485959   0.020326
H  -1.195729   1.176485  -0.163763
H  -0.361692  -1.838313   0.275225
H   0.691089  -0.230122   0.090158

