%chk=/home/boittier/MDCM/nms_sampling/butadiene_geom.xyz.dir/butadiene_2872.chk
%nproc=8
%mem=16000MB
#p B2PLYPD3/Def2QZVP 

butadiene

0 1
C  -3.852580   0.208641  -0.027641
C  -2.699284  -0.485794   0.079003
C  -1.383930   0.122203   0.067739
C  -0.273888  -0.676311   0.003191
H  -4.780165  -0.395946  -0.091990
H  -3.867272   1.315641  -0.005927
H  -2.620913  -1.530333   0.105158
H  -1.362401   1.214762   0.089751
H  -0.519763  -1.782908   0.088414
H   0.860743  -0.413085  -0.314154
