%chk=/home/boittier/MDCM/nms_sampling/butadiene_geom.xyz.dir/butadiene_725.chk
%nproc=8
%mem=16000MB
#p B2PLYPD3/Def2QZVP 

butadiene

0 1
C  -3.841418   0.222005  -0.004550
C  -2.711946  -0.508116   0.060000
C  -1.384300   0.086465   0.023342
C  -0.269173  -0.659743   0.018657
H  -4.847956  -0.209570   0.083525
H  -3.808041   1.294174  -0.046654
H  -2.778911  -1.590611   0.088688
H  -1.316216   1.147470   0.029078
H  -0.311192  -1.743204  -0.017882
H   0.721866  -0.197858   0.050341
