%chk=/home/boittier/MDCM/nms_sampling/butadiene_geom.xyz.dir/butadiene_1385.chk
%nproc=8
%mem=16000MB
#p B2PLYPD3/Def2QZVP 

butadiene

0 1
C  -3.847197   0.233840   0.011757
C  -2.725712  -0.515013   0.066214
C  -1.383010   0.045873   0.025374
C  -0.256191  -0.642296   0.011407
H  -4.850987  -0.186864  -0.076452
H  -3.691902   1.316910  -0.071393
H  -2.799534  -1.567523   0.025519
H  -1.334309   1.124390  -0.003012
H  -0.272389  -1.688380   0.062143
H   0.682760  -0.100343   0.015779
