%chk=/home/boittier/MDCM/nms_sampling/butadiene_geom.xyz.dir/butadiene_2835.chk
%nproc=8
%mem=16000MB
#p B2PLYPD3/Def2QZVP 

butadiene

0 1
C  -3.842370   0.184256  -0.026526
C  -2.716307  -0.465619   0.125838
C  -1.368419   0.094018   0.080797
C  -0.283605  -0.669218  -0.034252
H  -4.846683  -0.252357  -0.164056
H  -3.749813   1.289599  -0.295227
H  -2.606719  -1.519029   0.074134
H  -1.228892   1.233562   0.142066
H  -0.499669  -1.794371  -0.058166
H   0.637154  -0.259146  -0.092029
