%chk=/home/boittier/MDCM/nms_sampling/butadiene_geom.xyz.dir/butadiene_1215.chk
%nproc=8
%mem=16000MB
#p B2PLYPD3/Def2QZVP 

butadiene

0 1
C  -3.859289   0.240031   0.037075
C  -2.735504  -0.519077   0.025903
C  -1.385341   0.044857  -0.023902
C  -0.232087  -0.639625   0.058456
H  -4.871385  -0.154664   0.037225
H  -3.758847   1.304336   0.110598
H  -2.719239  -1.591808  -0.079697
H  -1.318621   1.140307  -0.130648
H  -0.250271  -1.728239   0.125635
H   0.655964  -0.114801   0.063732
