%chk=/home/boittier/MDCM/nms_sampling/butadiene_geom.xyz.dir/butadiene_815.chk
%nproc=8
%mem=16000MB
#p B2PLYPD3/Def2QZVP 

butadiene

0 1
C  -3.841752   0.232713  -0.004470
C  -2.721655  -0.504735   0.056383
C  -1.392887   0.052765   0.043846
C  -0.255758  -0.650444   0.014712
H  -4.819474  -0.196552  -0.039049
H  -3.812887   1.311488  -0.000628
H  -2.756777  -1.580924   0.130480
H  -1.320827   1.141549  -0.011105
H  -0.237304  -1.720133   0.021717
H   0.681310  -0.139722  -0.085255

