%chk=/home/boittier/MDCM/nms_sampling/butadiene_geom.xyz.dir/butadiene_1702.chk
%nproc=8
%mem=16000MB
#p B2PLYPD3/Def2QZVP 

butadiene

0 1
C  -3.835885   0.207971  -0.017849
C  -2.721093  -0.494554   0.081319
C  -1.388369   0.093486   0.047906
C  -0.265445  -0.666007  -0.014864
H  -4.861902  -0.221580   0.008152
H  -3.769521   1.319012  -0.121589
H  -2.732642  -1.555433   0.121262
H  -1.346205   1.191907   0.138643
H  -0.281535  -1.776454   0.056327
H   0.704615  -0.241604   0.011512

