%chk=/home/boittier/MDCM/nms_sampling/butadiene_geom.xyz.dir/butadiene_1802.chk
%nproc=8
%mem=16000MB
#p B2PLYPD3/Def2QZVP 

butadiene

0 1
C  -3.844036   0.249892   0.064917
C  -2.725839  -0.510416  -0.002774
C  -1.391122   0.034977  -0.012943
C  -0.243273  -0.638447   0.065093
H  -4.815610  -0.236185   0.015327
H  -3.847973   1.313481  -0.000769
H  -2.766491  -1.631136  -0.117299
H  -1.355491   1.129766  -0.156228
H  -0.267646  -1.730445   0.187153
H   0.695769  -0.111238  -0.018713

