%chk=/home/boittier/MDCM/nms_sampling/butadiene_geom.xyz.dir/butadiene_1742.chk
%nproc=8
%mem=16000MB
#p B2PLYPD3/Def2QZVP 

butadiene

0 1
C  -3.838437   0.214870   0.048046
C  -2.719941  -0.495053  -0.001201
C  -1.389463   0.089381  -0.031921
C  -0.260362  -0.659439   0.073634
H  -4.783062  -0.278496   0.062022
H  -3.785454   1.320731   0.053724
H  -2.791676  -1.589415   0.141409
H  -1.367782   1.161544  -0.039587
H  -0.380721  -1.761270  -0.021147
H   0.793886  -0.246262   0.090483

