%chk=/home/boittier/MDCM/nms_sampling/butadiene_geom.xyz.dir/butadiene_2061.chk
%nproc=8
%mem=16000MB
#p B2PLYPD3/Def2QZVP 

butadiene

0 1
C  -3.862682   0.196041  -0.043112
C  -2.699218  -0.496155   0.120745
C  -1.351694   0.118120   0.073031
C  -0.290225  -0.664939  -0.012183
H  -4.832904  -0.257723  -0.295477
H  -3.775892   1.281037  -0.005369
H  -2.749916  -1.592343   0.302886
H  -1.230428   1.250461   0.067264
H  -0.502455  -1.857703  -0.184524
H   0.693405  -0.257972  -0.178834

