%chk=/home/boittier/MDCM/nms_sampling/butadiene_geom.xyz.dir/butadiene_2192.chk
%nproc=8
%mem=16000MB
#p B2PLYPD3/Def2QZVP 

butadiene

0 1
C  -3.895445   0.209990   0.017734
C  -2.720160  -0.464173   0.073299
C  -1.362393   0.091893  -0.001665
C  -0.235730  -0.674192   0.017005
H  -4.795721  -0.417334  -0.041190
H  -3.953506   1.285936  -0.264946
H  -2.630837  -1.542290   0.183244
H  -1.286157   1.258870   0.248038
H  -0.394383  -1.762631  -0.120189
H   0.820608  -0.353975   0.122573

