%chk=/home/boittier/MDCM/nms_sampling/butadiene_geom.xyz.dir/butadiene_238.chk
%nproc=8
%mem=16000MB
#p B2PLYPD3/Def2QZVP 

butadiene

0 1
C  -3.833556   0.231383   0.007569
C  -2.720643  -0.502770   0.044694
C  -1.392800   0.052261   0.026707
C  -0.262283  -0.643943   0.029787
H  -4.779993  -0.265701   0.080938
H  -3.798931   1.337680  -0.089845
H  -2.780812  -1.563870   0.090098
H  -1.325700   1.147032   0.010187
H  -0.316662  -1.737103  -0.035564
H   0.709348  -0.177030  -0.010123
