%chk=/home/boittier/MDCM/nms_sampling/butadiene_geom.xyz.dir/butadiene_2172.chk
%nproc=8
%mem=16000MB
#p B2PLYPD3/Def2QZVP 

butadiene

0 1
C  -3.828264   0.245665  -0.039031
C  -2.745217  -0.509175   0.111355
C  -1.413911  -0.001281   0.033626
C  -0.250398  -0.623879  -0.039147
H  -4.835493  -0.103423   0.037255
H  -3.686302   1.268001  -0.196567
H  -2.802040  -1.578407   0.276049
H  -1.250890   1.141668   0.375649
H  -0.052432  -1.640067  -0.029101
H   0.693432  -0.054820   0.180581

