%chk=/home/boittier/MDCM/nms_sampling/butadiene_geom.xyz.dir/butadiene_615.chk
%nproc=8
%mem=16000MB
#p B2PLYPD3/Def2QZVP 

butadiene

0 1
C  -3.834707   0.226396   0.009442
C  -2.718228  -0.511353   0.045752
C  -1.387344   0.064955   0.014639
C  -0.268681  -0.645836   0.029195
H  -4.845062  -0.166094   0.019689
H  -3.731692   1.301178  -0.043552
H  -2.796271  -1.606957   0.162248
H  -1.336231   1.138645   0.049649
H  -0.277351  -1.724551  -0.037282
H   0.675772  -0.175764   0.026121
