%chk=/home/boittier/MDCM/nms_sampling/butadiene_geom.xyz.dir/butadiene_620.chk
%nproc=8
%mem=16000MB
#p B2PLYPD3/Def2QZVP 

butadiene

0 1
C  -3.852887   0.213359   0.034949
C  -2.711339  -0.481989   0.024804
C  -1.375597   0.078382  -0.004567
C  -0.265115  -0.663980   0.052407
H  -4.798032  -0.260095   0.026481
H  -3.881380   1.291071   0.016242
H  -2.772157  -1.554319  -0.016256
H  -1.331997   1.140726  -0.080472
H  -0.314109  -1.740128   0.077523
H   0.733437  -0.229978  -0.001722

