%chk=/home/boittier/MDCM/nms_sampling/butadiene_geom.xyz.dir/butadiene_2217.chk
%nproc=8
%mem=16000MB
#p B2PLYPD3/Def2QZVP 

butadiene

0 1
C  -3.854618   0.216088  -0.034449
C  -2.720897  -0.473485   0.107615
C  -1.382318   0.101532   0.060253
C  -0.269433  -0.686962  -0.041756
H  -4.783344  -0.342893   0.036100
H  -3.788546   1.290666  -0.316043
H  -2.744419  -1.583784   0.243344
H  -1.299226   1.121759   0.337586
H  -0.129477  -1.790412  -0.062147
H   0.649968  -0.161341   0.093921
