%chk=/home/boittier/MDCM/nms_sampling/butadiene_geom.xyz.dir/butadiene_1151.chk
%nproc=8
%mem=16000MB
#p B2PLYPD3/Def2QZVP 

butadiene

0 1
C  -3.825506   0.220024   0.039110
C  -2.734331  -0.509491   0.012371
C  -1.395475   0.064960   0.016831
C  -0.257199  -0.637191   0.035473
H  -4.816454  -0.171546  -0.012458
H  -3.739631   1.324258   0.063872
H  -2.854029  -1.594268  -0.021392
H  -1.343754   1.119584  -0.184988
H  -0.273088  -1.737767   0.186457
H   0.769694  -0.213160   0.015503
