%chk=/home/boittier/MDCM/nms_sampling/butadiene_geom.xyz.dir/butadiene_1888.chk
%nproc=8
%mem=16000MB
#p B2PLYPD3/Def2QZVP 

butadiene

0 1
C  -3.833406   0.214890   0.002336
C  -2.720702  -0.500986   0.046495
C  -1.389592   0.087215   0.029619
C  -0.264220  -0.650019   0.002996
H  -4.795873  -0.246245   0.079142
H  -3.802958   1.287971  -0.091742
H  -2.834501  -1.591604   0.128867
H  -1.317331   1.200165   0.127009
H  -0.342187  -1.764007   0.112956
H   0.775730  -0.295911   0.040480
