%chk=/home/boittier/MDCM/nms_sampling/butadiene_geom.xyz.dir/butadiene_1591.chk
%nproc=8
%mem=16000MB
#p B2PLYPD3/Def2QZVP 

butadiene

0 1
C  -3.838512   0.238028   0.066536
C  -2.719135  -0.523369  -0.008961
C  -1.393776   0.063730  -0.027370
C  -0.264813  -0.640075   0.068612
H  -4.850095  -0.215152  -0.045389
H  -3.712925   1.308560   0.094189
H  -2.710879  -1.566010   0.016751
H  -1.338019   1.137828  -0.145068
H  -0.320339  -1.714666   0.148595
H   0.726526  -0.227843   0.047156
