%chk=/home/boittier/MDCM/nms_sampling/butadiene_geom.xyz.dir/butadiene_1863.chk
%nproc=8
%mem=16000MB
#p B2PLYPD3/Def2QZVP 

butadiene

0 1
C  -3.836861   0.247035  -0.005943
C  -2.738424  -0.537691   0.070045
C  -1.398478   0.062159   0.023437
C  -0.245061  -0.640115   0.024037
H  -4.822832  -0.192798   0.030411
H  -3.714132   1.335629  -0.075570
H  -2.737582  -1.595902   0.102339
H  -1.344313   1.156870   0.052474
H  -0.239409  -1.756275  -0.084184
H   0.686291  -0.145328  -0.006350

