%chk=/home/boittier/MDCM/nms_sampling/butadiene_geom.xyz.dir/butadiene_514.chk
%nproc=8
%mem=16000MB
#p B2PLYPD3/Def2QZVP 

butadiene

0 1
C  -3.835177   0.232300   0.007231
C  -2.734064  -0.515266   0.057114
C  -1.387620   0.056139   0.032091
C  -0.253238  -0.638905   0.015731
H  -4.820879  -0.225693  -0.042532
H  -3.811541   1.326831  -0.035772
H  -2.820084  -1.582713   0.081605
H  -1.301036   1.153892  -0.040109
H  -0.272979  -1.711622   0.016575
H   0.746877  -0.190489   0.008887

