%chk=/home/boittier/MDCM/nms_sampling/butadiene_geom.xyz.dir/butadiene_632.chk
%nproc=8
%mem=16000MB
#p B2PLYPD3/Def2QZVP 

butadiene

0 1
C  -3.849525   0.228343   0.003515
C  -2.731588  -0.511109   0.057914
C  -1.385190   0.063412   0.034968
C  -0.248352  -0.647801   0.011880
H  -4.834893  -0.212010  -0.019387
H  -3.805340   1.335869  -0.059095
H  -2.777083  -1.601693   0.063040
H  -1.280886   1.157393   0.028851
H  -0.247567  -1.714965   0.075788
H   0.717431  -0.174434  -0.048706

