%chk=/home/boittier/MDCM/nms_sampling/butadiene_geom.xyz.dir/butadiene_295.chk
%nproc=8
%mem=16000MB
#p B2PLYPD3/Def2QZVP 

butadiene

0 1
C  -3.843507   0.233191   0.024773
C  -2.732657  -0.515523   0.030557
C  -1.380144   0.057340   0.010127
C  -0.253826  -0.639832   0.027670
H  -4.820063  -0.232644   0.055954
H  -3.799142   1.320106  -0.027529
H  -2.828700  -1.582005   0.063821
H  -1.303940   1.134261  -0.045687
H  -0.270468  -1.692685   0.065941
H   0.740496  -0.190787   0.109176

