%chk=/home/boittier/MDCM/nms_sampling/butadiene_geom.xyz.dir/butadiene_173.chk
%nproc=8
%mem=16000MB
#p B2PLYPD3/Def2QZVP 

butadiene

0 1
C  -3.832518   0.230497   0.044642
C  -2.712337  -0.504218   0.004021
C  -1.390635   0.065968   0.005700
C  -0.268892  -0.656367   0.046664
H  -4.806991  -0.247214   0.020328
H  -3.811239   1.316603   0.024767
H  -2.759512  -1.572796   0.018372
H  -1.364152   1.156119  -0.115713
H  -0.327446  -1.737342   0.146884
H   0.706513  -0.162916   0.003790

