%chk=/home/boittier/MDCM/nms_sampling/butadiene_geom.xyz.dir/butadiene_1116.chk
%nproc=8
%mem=16000MB
#p B2PLYPD3/Def2QZVP 

butadiene

0 1
C  -3.822531   0.198870  -0.009413
C  -2.710224  -0.480351   0.067431
C  -1.392784   0.099305   0.055494
C  -0.288020  -0.673439   0.011886
H  -4.782676  -0.239557  -0.063857
H  -3.773476   1.301512  -0.066851
H  -2.791524  -1.582069   0.077140
H  -1.268503   1.172630   0.053302
H  -0.317996  -1.737884   0.053438
H   0.676945  -0.234965  -0.222232
