%chk=/home/boittier/MDCM/nms_sampling/butadiene_geom.xyz.dir/butadiene_2561.chk
%nproc=8
%mem=16000MB
#p B2PLYPD3/Def2QZVP 

butadiene

0 1
C  -3.874881   0.198888  -0.026402
C  -2.727780  -0.447091   0.059550
C  -1.364750   0.112430   0.092747
C  -0.240345  -0.686047   0.001123
H  -4.701980  -0.388632   0.177959
H  -3.878123   1.197552  -0.289718
H  -2.735407  -1.534392   0.278575
H  -1.425195   1.194998   0.024717
H  -0.372934  -1.813140  -0.299709
H   0.777317  -0.351877  -0.019027
