%chk=/home/boittier/MDCM/nms_sampling/butadiene_geom.xyz.dir/butadiene_1112.chk
%nproc=8
%mem=16000MB
#p B2PLYPD3/Def2QZVP 

butadiene

0 1
C  -3.859978   0.217028   0.052579
C  -2.717865  -0.493997  -0.009292
C  -1.371047   0.083505  -0.042385
C  -0.250824  -0.663057   0.082290
H  -4.814536  -0.270785   0.124316
H  -3.913763   1.309410   0.051081
H  -2.725106  -1.568622   0.072584
H  -1.318980   1.201286  -0.003779
H  -0.392577  -1.765294   0.048833
H   0.741912  -0.231623   0.052915
