%chk=/home/boittier/MDCM/nms_sampling/butadiene_geom.xyz.dir/butadiene_2054.chk
%nproc=8
%mem=16000MB
#p B2PLYPD3/Def2QZVP 

butadiene

0 1
C  -3.823283   0.215149  -0.056373
C  -2.714351  -0.489503   0.108589
C  -1.383755   0.087221   0.135546
C  -0.313809  -0.661650  -0.061473
H  -4.734738  -0.313277  -0.077758
H  -3.726813   1.280771  -0.083198
H  -2.691069  -1.569930   0.122513
H  -1.160747   1.209759  -0.097809
H  -0.297813  -1.790047   0.042508
H   0.625615  -0.215243  -0.091253
