%chk=/home/boittier/MDCM/nms_sampling/butadiene_geom.xyz.dir/butadiene_1113.chk
%nproc=8
%mem=16000MB
#p B2PLYPD3/Def2QZVP 

butadiene

0 1
C  -3.839950   0.244144   0.020512
C  -2.736275  -0.505793   0.036795
C  -1.397093   0.032506   0.028594
C  -0.238262  -0.636133   0.023069
H  -4.775323  -0.258214   0.085133
H  -3.755361   1.301179  -0.210372
H  -2.842350  -1.573945   0.086183
H  -1.362417   1.108429   0.089291
H  -0.260851  -1.708187   0.010324
H   0.733991  -0.110248  -0.005683
