%chk=/home/boittier/MDCM/nms_sampling/butadiene_geom.xyz.dir/butadiene_1917.chk
%nproc=8
%mem=16000MB
#p B2PLYPD3/Def2QZVP 

butadiene

0 1
C  -3.835018   0.240184   0.016477
C  -2.724463  -0.505004   0.057223
C  -1.402425   0.038476   0.016742
C  -0.241733  -0.639093   0.020460
H  -4.814090  -0.227255  -0.040004
H  -3.815567   1.321657  -0.019407
H  -2.841231  -1.578617  -0.017747
H  -1.390326   1.146306  -0.062130
H  -0.191104  -1.716974   0.084991
H   0.692366  -0.183573   0.039322

