%chk=/home/boittier/MDCM/nms_sampling/butadiene_geom.xyz.dir/butadiene_2501.chk
%nproc=8
%mem=16000MB
#p B2PLYPD3/Def2QZVP 

butadiene

0 1
C  -3.813095   0.246085  -0.042759
C  -2.729495  -0.561551   0.103087
C  -1.386319   0.069826   0.036485
C  -0.276838  -0.650996  -0.017555
H  -4.830252  -0.074831   0.071224
H  -3.590626   1.400295  -0.075851
H  -2.823251  -1.677409   0.217581
H  -1.439823   1.143655   0.205226
H  -0.208967  -1.641849  -0.076463
H   0.547963  -0.046888   0.116359
