%chk=/home/boittier/MDCM/nms_sampling/butadiene_geom.xyz.dir/butadiene_698.chk
%nproc=8
%mem=16000MB
#p B2PLYPD3/Def2QZVP 

butadiene

0 1
C  -3.827151   0.227044   0.028351
C  -2.712272  -0.504176   0.018205
C  -1.388027   0.058133   0.015161
C  -0.271750  -0.644517   0.033162
H  -4.839094  -0.220336   0.039634
H  -3.793127   1.313620   0.043966
H  -2.828139  -1.575286   0.025682
H  -1.369269   1.141790  -0.105022
H  -0.308000  -1.732840   0.148790
H   0.709638  -0.188928   0.024834

