%chk=/home/boittier/MDCM/nms_sampling/butadiene_geom.xyz.dir/butadiene_1946.chk
%nproc=8
%mem=16000MB
#p B2PLYPD3/Def2QZVP 

butadiene

0 1
C  -3.857785   0.258210  -0.031246
C  -2.733739  -0.536894   0.134177
C  -1.388845   0.034917   0.067325
C  -0.235590  -0.646820  -0.022086
H  -4.800988  -0.195565  -0.074795
H  -3.758026   1.364058  -0.352838
H  -2.893082  -1.551634   0.082003
H  -1.357910   1.096288   0.169825
H  -0.026120  -1.663774  -0.206493
H   0.623887  -0.009713  -0.020929
