%chk=/home/boittier/MDCM/nms_sampling/butadiene_geom.xyz.dir/butadiene_2514.chk
%nproc=8
%mem=16000MB
#p B2PLYPD3/Def2QZVP 

butadiene

0 1
C  -3.843494   0.213056   0.071507
C  -2.741084  -0.490922  -0.020084
C  -1.386947   0.053599  -0.034726
C  -0.252159  -0.656413   0.076331
H  -4.841879  -0.215729   0.039631
H  -3.794879   1.358477   0.016897
H  -2.858475  -1.553985  -0.014444
H  -1.208607   1.178923  -0.021048
H  -0.083326  -1.706453   0.206931
H   0.668749  -0.100092  -0.028249

