%chk=/home/boittier/MDCM/nms_sampling/butadiene_geom.xyz.dir/butadiene_1164.chk
%nproc=8
%mem=16000MB
#p B2PLYPD3/Def2QZVP 

butadiene

0 1
C  -3.808775   0.237455   0.032240
C  -2.716697  -0.514209   0.005538
C  -1.405913   0.043366  -0.007473
C  -0.282008  -0.636201   0.052729
H  -4.840592  -0.208761   0.033869
H  -3.704147   1.325728   0.143091
H  -2.810387  -1.569686   0.099896
H  -1.349657   1.130403  -0.084235
H  -0.230693  -1.706946   0.121919
H   0.693941  -0.161093   0.017592

