%chk=/home/boittier/MDCM/nms_sampling/butadiene_geom.xyz.dir/butadiene_2266.chk
%nproc=8
%mem=16000MB
#p B2PLYPD3/Def2QZVP 

butadiene

0 1
C  -3.839342   0.274011  -0.041939
C  -2.732308  -0.561457   0.079577
C  -1.400543   0.030218   0.100763
C  -0.228268  -0.620633  -0.023246
H  -4.913870  -0.094817   0.113564
H  -3.826214   1.269580  -0.106973
H  -2.784786  -1.590975   0.088087
H  -1.368362   1.074692  -0.047552
H  -0.223624  -1.716908  -0.005514
H   0.713516  -0.068297  -0.079842
