%chk=/home/boittier/MDCM/nms_sampling/butadiene_geom.xyz.dir/butadiene_1381.chk
%nproc=8
%mem=16000MB
#p B2PLYPD3/Def2QZVP 

butadiene

0 1
C  -3.831096   0.209037   0.039401
C  -2.718424  -0.496933   0.013635
C  -1.382543   0.074842  -0.046782
C  -0.269534  -0.656839   0.071892
H  -4.830886  -0.194020   0.121558
H  -3.747794   1.334971   0.043510
H  -2.768523  -1.566017   0.069398
H  -1.366435   1.183585   0.055836
H  -0.378210  -1.743031   0.028398
H   0.690287  -0.189208   0.099888
