%chk=/home/boittier/MDCM/nms_sampling/butadiene_geom.xyz.dir/butadiene_1129.chk
%nproc=8
%mem=16000MB
#p B2PLYPD3/Def2QZVP 

butadiene

0 1
C  -3.830846   0.210952  -0.014681
C  -2.709887  -0.474628   0.075580
C  -1.379279   0.071323   0.065713
C  -0.278315  -0.667116  -0.015343
H  -4.821242  -0.277581  -0.114240
H  -3.817074   1.294363  -0.046212
H  -2.764426  -1.574171   0.145836
H  -1.337538   1.180303   0.030157
H  -0.359445  -1.746621   0.077370
H   0.652128  -0.168890  -0.081202
