%chk=/home/boittier/MDCM/nms_sampling/butadiene_geom.xyz.dir/butadiene_676.chk
%nproc=8
%mem=16000MB
#p B2PLYPD3/Def2QZVP 

butadiene

0 1
C  -3.859753   0.207702  -0.001047
C  -2.717934  -0.486288   0.065352
C  -1.369724   0.083179   0.039371
C  -0.262499  -0.663165   0.016018
H  -4.824557  -0.247164  -0.050465
H  -3.832131   1.292835  -0.031691
H  -2.799852  -1.566463   0.075059
H  -1.267028   1.174012  -0.042382
H  -0.309306  -1.758371  -0.008922
H   0.726275  -0.194400  -0.046893

