%chk=/home/boittier/MDCM/nms_sampling/butadiene_geom.xyz.dir/butadiene_1808.chk
%nproc=8
%mem=16000MB
#p B2PLYPD3/Def2QZVP 

butadiene

0 1
C  -3.830343   0.224370   0.056915
C  -2.730240  -0.503442   0.011350
C  -1.397842   0.051782  -0.022014
C  -0.256189  -0.641742   0.063109
H  -4.852849  -0.182415  -0.001322
H  -3.713423   1.322221   0.035896
H  -2.797290  -1.605995  -0.111084
H  -1.329355   1.137429  -0.132801
H  -0.260575  -1.667615   0.167516
H   0.728365  -0.192045   0.016103
