%chk=/home/boittier/MDCM/nms_sampling/butadiene_geom.xyz.dir/butadiene_2218.chk
%nproc=8
%mem=16000MB
#p B2PLYPD3/Def2QZVP 

butadiene

0 1
C  -3.874714   0.224864   0.062587
C  -2.735196  -0.513196  -0.013089
C  -1.372362   0.089617  -0.082710
C  -0.244596  -0.665656   0.109833
H  -4.848066  -0.222949   0.156217
H  -3.665374   1.303850   0.037048
H  -2.802385  -1.603423   0.111165
H  -1.334258   1.117954   0.107357
H  -0.200826  -1.708775  -0.043031
H   0.756327  -0.123504   0.082627

