%chk=/home/boittier/MDCM/nms_sampling/butadiene_geom.xyz.dir/butadiene_634.chk
%nproc=8
%mem=16000MB
#p B2PLYPD3/Def2QZVP 

butadiene

0 1
C  -3.854593   0.215370   0.041610
C  -2.719668  -0.490902   0.017767
C  -1.372635   0.079816  -0.011706
C  -0.261477  -0.658480   0.051378
H  -4.835197  -0.273709   0.004809
H  -3.837656   1.303421   0.032959
H  -2.787119  -1.585476  -0.013578
H  -1.267546   1.157546  -0.042285
H  -0.311156  -1.745186   0.153626
H   0.720579  -0.210665  -0.008915
