%chk=/home/boittier/MDCM/nms_sampling/butadiene_geom.xyz.dir/butadiene_928.chk
%nproc=8
%mem=16000MB
#p B2PLYPD3/Def2QZVP 

butadiene

0 1
C  -3.833389   0.226750   0.008930
C  -2.728338  -0.510790   0.044532
C  -1.391544   0.068233   0.037963
C  -0.261037  -0.650797   0.013903
H  -4.828518  -0.180192   0.022138
H  -3.708823   1.299425  -0.050737
H  -2.768448  -1.592232   0.075604
H  -1.366330   1.148132  -0.042895
H  -0.277756  -1.719908   0.056785
H   0.709888  -0.170717   0.011463

