%chk=/home/boittier/MDCM/nms_sampling/butadiene_geom.xyz.dir/butadiene_1889.chk
%nproc=8
%mem=16000MB
#p B2PLYPD3/Def2QZVP 

butadiene

0 1
C  -3.865819   0.203126   0.029747
C  -2.720044  -0.470497   0.026367
C  -1.374768   0.086384  -0.009658
C  -0.262443  -0.667699   0.035910
H  -4.835690  -0.259454   0.123860
H  -3.871081   1.278276  -0.061749
H  -2.668948  -1.541990   0.039665
H  -1.264325   1.176528   0.044438
H  -0.260633  -1.784182   0.087786
H   0.760473  -0.266782   0.130943

