%chk=/home/boittier/MDCM/nms_sampling/butadiene_geom.xyz.dir/butadiene_1982.chk
%nproc=8
%mem=16000MB
#p B2PLYPD3/Def2QZVP 

butadiene

0 1
C  -3.847631   0.171052  -0.012055
C  -2.683897  -0.458374   0.061291
C  -1.388501   0.128940   0.086407
C  -0.286599  -0.691591   0.001841
H  -4.851091  -0.186365   0.088581
H  -3.826750   1.223060  -0.312101
H  -2.705797  -1.491974   0.231048
H  -1.258356   1.232190   0.008034
H  -0.421325  -1.805844  -0.262174
H   0.699022  -0.338632  -0.022164
