%chk=/home/boittier/MDCM/nms_sampling/butadiene_geom.xyz.dir/butadiene_2076.chk
%nproc=8
%mem=16000MB
#p B2PLYPD3/Def2QZVP 

butadiene

0 1
C  -3.831615   0.235664  -0.020988
C  -2.717721  -0.556382   0.126704
C  -1.390167   0.063855   0.054473
C  -0.272766  -0.623843  -0.018889
H  -4.947861  -0.041176  -0.303905
H  -3.681368   1.321337  -0.112474
H  -2.835403  -1.638885   0.037299
H  -1.222547   1.170020   0.154207
H  -0.256621  -1.778451   0.073986
H   0.669927  -0.111971  -0.211101

