%chk=/home/boittier/MDCM/nms_sampling/butadiene_geom.xyz.dir/butadiene_1114.chk
%nproc=8
%mem=16000MB
#p B2PLYPD3/Def2QZVP 

butadiene

0 1
C  -3.836840   0.221425  -0.028559
C  -2.706223  -0.494434   0.078648
C  -1.384581   0.107690   0.041369
C  -0.292030  -0.683704   0.000620
H  -4.760374  -0.353995   0.045879
H  -3.832822   1.300384  -0.010855
H  -2.679675  -1.549525   0.188633
H  -1.272511   1.169258   0.075154
H  -0.330445  -1.732562  -0.053012
H   0.701548  -0.229663   0.026271
