%chk=/home/boittier/MDCM/nms_sampling/butadiene_geom.xyz.dir/butadiene_1943.chk
%nproc=8
%mem=16000MB
#p B2PLYPD3/Def2QZVP 

butadiene

0 1
C  -3.813983   0.270854  -0.037889
C  -2.714048  -0.569335   0.084702
C  -1.414378   0.046112   0.097317
C  -0.265115  -0.611075  -0.052466
H  -4.842544  -0.128897  -0.052110
H  -3.736912   1.321021  -0.182275
H  -2.772472  -1.621284   0.332254
H  -1.398964   1.060795   0.211823
H  -0.322780  -1.700082   0.036013
H   0.769998  -0.221508  -0.033156
