%chk=/home/boittier/MDCM/nms_sampling/butadiene_geom.xyz.dir/butadiene_2251.chk
%nproc=8
%mem=16000MB
#p B2PLYPD3/Def2QZVP 

butadiene

0 1
C  -3.823830   0.280819  -0.015391
C  -2.701535  -0.546573   0.090027
C  -1.404324   0.035658   0.064443
C  -0.264238  -0.632398  -0.022900
H  -4.823578  -0.224808  -0.034548
H  -3.810969   1.300810  -0.297029
H  -2.739784  -1.622885   0.308498
H  -1.424253   1.019373   0.122473
H  -0.334900  -1.709850  -0.244368
H   0.647124  -0.073734   0.163120
