%chk=/home/boittier/MDCM/nms_sampling/butadiene_geom.xyz.dir/butadiene_780.chk
%nproc=8
%mem=16000MB
#p B2PLYPD3/Def2QZVP 

butadiene

0 1
C  -3.831389   0.230751   0.011419
C  -2.715102  -0.511765   0.046762
C  -1.391004   0.073426   0.042842
C  -0.278096  -0.653292   0.012554
H  -4.795808  -0.224123  -0.033634
H  -3.792822   1.298767  -0.077306
H  -2.753587  -1.576069   0.099495
H  -1.299559   1.156135  -0.029219
H  -0.273011  -1.741928   0.040854
H   0.690591  -0.193707  -0.025533
