%chk=/home/boittier/MDCM/nms_sampling/butadiene_geom.xyz.dir/butadiene_647.chk
%nproc=8
%mem=16000MB
#p B2PLYPD3/Def2QZVP 

butadiene

0 1
C  -3.837222   0.234288   0.033494
C  -2.724180  -0.508384   0.017379
C  -1.386731   0.044868   0.004125
C  -0.254352  -0.638624   0.052833
H  -4.819410  -0.212059   0.020058
H  -3.830216   1.316453   0.054863
H  -2.812764  -1.563695   0.015262
H  -1.331070   1.122932  -0.126376
H  -0.284027  -1.720230   0.075055
H   0.696618  -0.157652  -0.023901
