%chk=/home/boittier/MDCM/nms_sampling/butadiene_geom.xyz.dir/butadiene_1132.chk
%nproc=8
%mem=16000MB
#p B2PLYPD3/Def2QZVP 

butadiene

0 1
C  -3.836188   0.216133  -0.025639
C  -2.708278  -0.513438   0.086787
C  -1.386033   0.103528   0.053003
C  -0.272030  -0.670440   0.001556
H  -4.884013  -0.180237  -0.057287
H  -3.789969   1.275497   0.023446
H  -2.770185  -1.576493   0.106043
H  -1.315349   1.201444  -0.037286
H  -0.321798  -1.752550  -0.030454
H   0.682794  -0.204710  -0.055969
