%chk=/home/boittier/MDCM/nms_sampling/butadiene_geom.xyz.dir/butadiene_736.chk
%nproc=8
%mem=16000MB
#p B2PLYPD3/Def2QZVP 

butadiene

0 1
C  -3.844416   0.226992   0.043225
C  -2.730280  -0.501442   0.000785
C  -1.381771   0.050244  -0.004547
C  -0.254344  -0.647384   0.051843
H  -4.818893  -0.222915   0.079861
H  -3.751550   1.331268  -0.016267
H  -2.810766  -1.562705   0.085558
H  -1.338911   1.133215  -0.028180
H  -0.237082  -1.709731   0.084793
H   0.676441  -0.131763   0.039313

