%chk=/home/boittier/MDCM/nms_sampling/butadiene_geom.xyz.dir/butadiene_446.chk
%nproc=8
%mem=16000MB
#p B2PLYPD3/Def2QZVP 

butadiene

0 1
C  -3.841256   0.227307   0.030972
C  -2.722707  -0.497833   0.023933
C  -1.388046   0.075822  -0.003868
C  -0.257394  -0.663960   0.048313
H  -4.806124  -0.262946   0.044581
H  -3.809470   1.295425   0.002231
H  -2.773933  -1.594924   0.070025
H  -1.330738   1.154703  -0.047263
H  -0.268831  -1.722028   0.020240
H   0.688172  -0.172692   0.054298
