%chk=/home/boittier/MDCM/nms_sampling/butadiene_geom.xyz.dir/butadiene_835.chk
%nproc=8
%mem=16000MB
#p B2PLYPD3/Def2QZVP 

butadiene

0 1
C  -3.849027   0.219407   0.001379
C  -2.720644  -0.491783   0.055754
C  -1.374018   0.079498   0.024018
C  -0.265883  -0.666332   0.012683
H  -4.791015  -0.261304   0.033907
H  -3.873661   1.304471  -0.064151
H  -2.738486  -1.573048   0.126278
H  -1.293504   1.156756   0.076803
H  -0.304167  -1.762207   0.027648
H   0.694157  -0.159658   0.038447
