%chk=/home/boittier/MDCM/nms_sampling/butadiene_geom.xyz.dir/butadiene_1150.chk
%nproc=8
%mem=16000MB
#p B2PLYPD3/Def2QZVP 

butadiene

0 1
C  -3.834994   0.246099  -0.004157
C  -2.744258  -0.518368   0.067158
C  -1.386160   0.037367   0.024591
C  -0.249451  -0.631920   0.017666
H  -4.785374  -0.252198   0.023771
H  -3.782773   1.320747  -0.081745
H  -2.822395  -1.594664   0.161744
H  -1.310401   1.125501   0.043127
H  -0.252944  -1.714026  -0.112855
H   0.734692  -0.110529   0.072755

