%chk=/home/boittier/MDCM/nms_sampling/butadiene_geom.xyz.dir/butadiene_2419.chk
%nproc=8
%mem=16000MB
#p B2PLYPD3/Def2QZVP 

butadiene

0 1
C  -3.864546   0.239108  -0.018303
C  -2.764213  -0.528837   0.079798
C  -1.379758   0.049284   0.122765
C  -0.220560  -0.633072  -0.036526
H  -4.884421  -0.204884  -0.164806
H  -3.665209   1.294770  -0.180458
H  -2.829933  -1.618368   0.136919
H  -1.211300   1.203719  -0.094378
H  -0.182394  -1.732911   0.017713
H   0.726135  -0.078620  -0.163856

