%chk=/home/boittier/MDCM/nms_sampling/butadiene_geom.xyz.dir/butadiene_419.chk
%nproc=8
%mem=16000MB
#p B2PLYPD3/Def2QZVP 

butadiene

0 1
C  -3.834399   0.219272   0.026476
C  -2.721842  -0.497457   0.021035
C  -1.386450   0.079684   0.015366
C  -0.273094  -0.662301   0.045251
H  -4.791064  -0.268682   0.026394
H  -3.788231   1.302120   0.043662
H  -2.755404  -1.549455   0.025229
H  -1.273211   1.164520  -0.116315
H  -0.313177  -1.733485   0.082208
H   0.700526  -0.184922  -0.047081

