%chk=/home/boittier/MDCM/nms_sampling/butadiene_geom.xyz.dir/butadiene_2595.chk
%nproc=8
%mem=16000MB
#p B2PLYPD3/Def2QZVP 

butadiene

0 1
C  -3.878099   0.238856   0.065902
C  -2.747367  -0.512022  -0.024867
C  -1.388280   0.050028  -0.059202
C  -0.211157  -0.646097   0.098600
H  -4.844162  -0.223776   0.060435
H  -3.753165   1.319636   0.153255
H  -2.637986  -1.562035   0.112015
H  -1.300033   1.186124  -0.064552
H  -0.233110  -1.709812   0.048583
H   0.679426  -0.186958   0.060565

