%chk=/home/boittier/MDCM/nms_sampling/butadiene_geom.xyz.dir/butadiene_2490.chk
%nproc=8
%mem=16000MB
#p B2PLYPD3/Def2QZVP 

butadiene

0 1
C  -3.872293   0.255011   0.058843
C  -2.742148  -0.537727   0.010530
C  -1.364484   0.051216  -0.058153
C  -0.217727  -0.632505   0.055826
H  -4.825757  -0.227482   0.215319
H  -3.822484   1.343783  -0.096474
H  -2.777699  -1.646748  -0.059513
H  -1.366166   1.125965   0.050731
H  -0.298712  -1.698915   0.110370
H   0.645428  -0.171926   0.327316

