%chk=/home/boittier/MDCM/nms_sampling/butadiene_geom.xyz.dir/butadiene_2237.chk
%nproc=8
%mem=16000MB
#p B2PLYPD3/Def2QZVP 

butadiene

0 1
C  -3.867764   0.249886   0.081351
C  -2.761434  -0.536208   0.002057
C  -1.377699   0.040093  -0.078904
C  -0.229220  -0.630178   0.087486
H  -4.828700  -0.166160   0.129306
H  -3.685315   1.337690  -0.089080
H  -2.650997  -1.550527  -0.110811
H  -1.330743   1.116553  -0.006787
H  -0.165511  -1.730717   0.052543
H   0.706317  -0.115009   0.247520
