%chk=/home/boittier/MDCM/nms_sampling/butadiene_geom.xyz.dir/butadiene_2590.chk
%nproc=8
%mem=16000MB
#p B2PLYPD3/Def2QZVP 

butadiene

0 1
C  -3.823756   0.206679  -0.057177
C  -2.692213  -0.486314   0.081533
C  -1.393721   0.126510   0.102758
C  -0.295653  -0.709294  -0.029333
H  -4.793351  -0.255372   0.214241
H  -3.768960   1.278437  -0.191099
H  -2.698749  -1.593810   0.318292
H  -1.331500   1.197252   0.060579
H  -0.360152  -1.718104  -0.231260
H   0.580770  -0.148913   0.070134

