%chk=/home/boittier/MDCM/nms_sampling/butadiene_geom.xyz.dir/butadiene_1806.chk
%nproc=8
%mem=16000MB
#p B2PLYPD3/Def2QZVP 

butadiene

0 1
C  -3.850261   0.222076   0.055457
C  -2.720057  -0.475428   0.004854
C  -1.382614   0.059275  -0.021023
C  -0.268322  -0.655972   0.051085
H  -4.797808  -0.298459  -0.038407
H  -3.812000   1.281278   0.139582
H  -2.717931  -1.594993  -0.041851
H  -1.287603   1.151429  -0.179466
H  -0.267721  -1.738340   0.223071
H   0.727784  -0.198900   0.102648
