%chk=/home/boittier/MDCM/nms_sampling/butadiene_geom.xyz.dir/butadiene_2100.chk
%nproc=8
%mem=16000MB
#p B2PLYPD3/Def2QZVP 

butadiene

0 1
C  -3.817074   0.238071   0.051640
C  -2.718359  -0.556999  -0.032781
C  -1.403391   0.062005  -0.068705
C  -0.279019  -0.612310   0.100980
H  -4.907999  -0.111276   0.300476
H  -3.615106   1.397447   0.209995
H  -2.850602  -1.662890  -0.054894
H  -1.242270   1.109290  -0.010223
H  -0.263309  -1.733097   0.237234
H   0.695961  -0.209430   0.029918

