%chk=/home/boittier/MDCM/nms_sampling/butadiene_geom.xyz.dir/butadiene_1654.chk
%nproc=8
%mem=16000MB
#p B2PLYPD3/Def2QZVP 

butadiene

0 1
C  -3.854238   0.217584   0.046385
C  -2.708045  -0.479338  -0.008131
C  -1.374096   0.068736  -0.008069
C  -0.263842  -0.663294   0.049833
H  -4.798674  -0.273132   0.225403
H  -3.946095   1.308139  -0.053169
H  -2.745156  -1.544028  -0.011402
H  -1.328075   1.110137  -0.060343
H  -0.324253  -1.708849   0.135778
H   0.724751  -0.226277   0.137164
