%chk=/home/boittier/MDCM/nms_sampling/butadiene_geom.xyz.dir/butadiene_1524.chk
%nproc=8
%mem=16000MB
#p B2PLYPD3/Def2QZVP 

butadiene

0 1
C  -3.827545   0.232135   0.058925
C  -2.724362  -0.519308  -0.021554
C  -1.391039   0.060662  -0.008112
C  -0.257532  -0.639544   0.063494
H  -4.837488  -0.193517   0.152623
H  -3.708191   1.321796  -0.019253
H  -2.841753  -1.600437   0.027954
H  -1.407696   1.111710  -0.140865
H  -0.360635  -1.731063   0.087886
H   0.744935  -0.145892   0.099887
