%chk=/home/boittier/MDCM/nms_sampling/butadiene_geom.xyz.dir/butadiene_107.chk
%nproc=8
%mem=16000MB
#p B2PLYPD3/Def2QZVP 

butadiene

0 1
C  -3.839307   0.212042   0.015649
C  -2.717878  -0.493917   0.037059
C  -1.389784   0.085508   0.023832
C  -0.268871  -0.662648   0.022295
H  -4.817255  -0.211456   0.057299
H  -3.781554   1.301083  -0.111218
H  -2.731646  -1.573359   0.116127
H  -1.332165   1.188262   0.067187
H  -0.297855  -1.761850   0.037635
H   0.734760  -0.230954   0.008131

