%chk=/home/boittier/MDCM/nms_sampling/butadiene_geom.xyz.dir/butadiene_858.chk
%nproc=8
%mem=16000MB
#p B2PLYPD3/Def2QZVP 

butadiene

0 1
C  -3.835392   0.231189   0.032705
C  -2.728837  -0.504365   0.009289
C  -1.390602   0.054625   0.006597
C  -0.259401  -0.647948   0.049099
H  -4.822666  -0.228062   0.111377
H  -3.799746   1.312048  -0.011479
H  -2.786365  -1.579283   0.061834
H  -1.284021   1.126077  -0.082046
H  -0.237868  -1.695143   0.040062
H   0.697356  -0.154145   0.040494
