%chk=/home/boittier/MDCM/nms_sampling/butadiene_geom.xyz.dir/butadiene_2152.chk
%nproc=8
%mem=16000MB
#p B2PLYPD3/Def2QZVP 

butadiene

0 1
C  -3.847635   0.186913   0.012359
C  -2.706616  -0.483563   0.065395
C  -1.355593   0.152880  -0.018758
C  -0.295577  -0.709212   0.049611
H  -4.849122  -0.286582   0.126294
H  -3.782688   1.299660  -0.172334
H  -2.665448  -1.567451   0.070023
H  -1.352985   1.282222   0.122443
H  -0.370021  -1.809475  -0.197066
H   0.641833  -0.256087   0.125086

