%chk=/home/boittier/MDCM/nms_sampling/butadiene_geom.xyz.dir/butadiene_2378.chk
%nproc=8
%mem=16000MB
#p B2PLYPD3/Def2QZVP 

butadiene

0 1
C  -3.842485   0.194708   0.106711
C  -2.699066  -0.448134  -0.038360
C  -1.391571   0.104194  -0.054617
C  -0.289619  -0.695837   0.089710
H  -4.736151  -0.330892  -0.045417
H  -3.865641   1.292690   0.058431
H  -2.605400  -1.501953  -0.043344
H  -1.293979   1.138007  -0.259547
H  -0.339410  -1.780550   0.138978
H   0.692471  -0.241390   0.190828
