%chk=/home/boittier/MDCM/nms_sampling/butadiene_geom.xyz.dir/butadiene_1998.chk
%nproc=8
%mem=16000MB
#p B2PLYPD3/Def2QZVP 

butadiene

0 1
C  -3.890133   0.157842   0.030561
C  -2.722320  -0.422957   0.027145
C  -1.374514   0.101307  -0.017422
C  -0.235989  -0.687292   0.058743
H  -4.841472  -0.267709   0.061610
H  -3.795464   1.255544   0.162306
H  -2.779936  -1.478505  -0.077275
H  -1.219594   1.234965  -0.232630
H  -0.273124  -1.760092   0.071093
H   0.760544  -0.321071   0.113696

