%chk=/home/boittier/MDCM/nms_sampling/butadiene_geom.xyz.dir/butadiene_1876.chk
%nproc=8
%mem=16000MB
#p B2PLYPD3/Def2QZVP 

butadiene

0 1
C  -3.833254   0.244308   0.039492
C  -2.729899  -0.538027   0.011440
C  -1.392966   0.074309  -0.048060
C  -0.266282  -0.643684   0.064186
H  -4.844121  -0.214137   0.108277
H  -3.691680   1.311405   0.133134
H  -2.728638  -1.616162   0.000250
H  -1.315166   1.176785   0.011823
H  -0.276923  -1.750571   0.170776
H   0.723801  -0.167123   0.105904
