%chk=/home/boittier/MDCM/nms_sampling/butadiene_geom.xyz.dir/butadiene_111.chk
%nproc=8
%mem=16000MB
#p B2PLYPD3/Def2QZVP 

butadiene

0 1
C  -3.838424   0.216107   0.040582
C  -2.717342  -0.481162   0.011471
C  -1.389166   0.067816   0.004383
C  -0.268264  -0.656471   0.045616
H  -4.797644  -0.250111  -0.005214
H  -3.820431   1.279921   0.023316
H  -2.753871  -1.579607   0.038126
H  -1.282070   1.146662  -0.079017
H  -0.304728  -1.742902   0.130711
H   0.702227  -0.209727  -0.015119

