%chk=/home/boittier/MDCM/nms_sampling/butadiene_geom.xyz.dir/butadiene_519.chk
%nproc=8
%mem=16000MB
#p B2PLYPD3/Def2QZVP 

butadiene

0 1
C  -3.832382   0.237037   0.042473
C  -2.710997  -0.509410   0.018124
C  -1.390872   0.064541  -0.004905
C  -0.267210  -0.652351   0.049871
H  -4.804071  -0.227859   0.007163
H  -3.803348   1.299103   0.008535
H  -2.792827  -1.606333  -0.032826
H  -1.385727   1.130224  -0.071324
H  -0.297202  -1.732954   0.142953
H   0.680770  -0.164477  -0.012761

