%chk=/home/boittier/MDCM/nms_sampling/butadiene_geom.xyz.dir/butadiene_1567.chk
%nproc=8
%mem=16000MB
#p B2PLYPD3/Def2QZVP 

butadiene

0 1
C  -3.834599   0.206790   0.046021
C  -2.706933  -0.471985  -0.012512
C  -1.390418   0.089946  -0.004151
C  -0.280468  -0.671870   0.067137
H  -4.809031  -0.283118   0.183200
H  -3.864036   1.283029  -0.015749
H  -2.679097  -1.535419   0.049755
H  -1.284751   1.142379  -0.124655
H  -0.328911  -1.744810   0.015071
H   0.700043  -0.280603   0.063396
