%chk=/home/boittier/MDCM/nms_sampling/butadiene_geom.xyz.dir/butadiene_1326.chk
%nproc=8
%mem=16000MB
#p B2PLYPD3/Def2QZVP 

butadiene

0 1
C  -3.828736   0.206334  -0.025507
C  -2.706645  -0.481961   0.061200
C  -1.376401   0.098081   0.070046
C  -0.292547  -0.671414  -0.008837
H  -4.781390  -0.272933   0.003196
H  -3.786636   1.270249   0.013825
H  -2.798910  -1.566804   0.201455
H  -1.316205   1.140660   0.010398
H  -0.362203  -1.779893   0.047177
H   0.662217  -0.201494  -0.079755

