%chk=/home/boittier/MDCM/nms_sampling/butadiene_geom.xyz.dir/butadiene_1464.chk
%nproc=8
%mem=16000MB
#p B2PLYPD3/Def2QZVP 

butadiene

0 1
C  -3.814686   0.246401   0.027813
C  -2.735799  -0.522670   0.026093
C  -1.400526   0.038330  -0.009533
C  -0.260608  -0.628564   0.035740
H  -4.776029  -0.228926  -0.012542
H  -3.740271   1.349348   0.119489
H  -2.789095  -1.603306   0.062248
H  -1.359945   1.102705  -0.041165
H  -0.310486  -1.714189   0.167502
H   0.720880  -0.136869   0.072551
