%chk=/home/boittier/MDCM/nms_sampling/butadiene_geom.xyz.dir/butadiene_503.chk
%nproc=8
%mem=16000MB
#p B2PLYPD3/Def2QZVP 

butadiene

0 1
C  -3.842378   0.225419  -0.000483
C  -2.720516  -0.503086   0.055410
C  -1.388169   0.059893   0.038922
C  -0.255869  -0.645460   0.014570
H  -4.857557  -0.197431   0.042564
H  -3.791084   1.312028  -0.101564
H  -2.783588  -1.599152   0.130970
H  -1.317772   1.130128   0.019544
H  -0.298961  -1.743340  -0.045820
H   0.715641  -0.163892   0.011701
