%chk=/home/boittier/MDCM/nms_sampling/butadiene_geom.xyz.dir/butadiene_1956.chk
%nproc=8
%mem=16000MB
#p B2PLYPD3/Def2QZVP 

butadiene

0 1
C  -3.846971   0.180869  -0.010813
C  -2.708256  -0.450439   0.067720
C  -1.366201   0.111558   0.064937
C  -0.281190  -0.679426  -0.019402
H  -4.800289  -0.371889   0.024650
H  -3.767968   1.288124  -0.286331
H  -2.771611  -1.510645   0.204229
H  -1.346899   1.123568   0.267261
H  -0.509046  -1.713764   0.039832
H   0.802719  -0.337991  -0.076131

