%chk=/home/boittier/MDCM/nms_sampling/butadiene_geom.xyz.dir/butadiene_502.chk
%nproc=8
%mem=16000MB
#p B2PLYPD3/Def2QZVP 

butadiene

0 1
C  -3.846594   0.212500   0.000470
C  -2.711325  -0.483587   0.060672
C  -1.377409   0.083417   0.033621
C  -0.270538  -0.671052   0.002970
H  -4.826813  -0.261496   0.010409
H  -3.818237   1.284938  -0.090064
H  -2.748340  -1.538403   0.146483
H  -1.337737   1.158789   0.040379
H  -0.309341  -1.746642  -0.006269
H   0.684859  -0.194045   0.091533
