%chk=/home/boittier/MDCM/nms_sampling/butadiene_geom.xyz.dir/butadiene_2782.chk
%nproc=8
%mem=16000MB
#p B2PLYPD3/Def2QZVP 

butadiene

0 1
C  -3.848065   0.178013   0.104156
C  -2.717313  -0.427655  -0.032532
C  -1.383531   0.082893  -0.099861
C  -0.274387  -0.693492   0.102585
H  -4.786054  -0.336230   0.118375
H  -3.779642   1.280484  -0.004651
H  -2.708103  -1.490883  -0.079580
H  -1.278026   1.247491  -0.015173
H  -0.296878  -1.722198   0.159151
H   0.712228  -0.215988   0.254372

