%chk=/home/boittier/MDCM/nms_sampling/butadiene_geom.xyz.dir/butadiene_2683.chk
%nproc=8
%mem=16000MB
#p B2PLYPD3/Def2QZVP 

butadiene

0 1
C  -3.859843   0.239412   0.059787
C  -2.728023  -0.526375  -0.068522
C  -1.379367   0.026139  -0.030391
C  -0.251864  -0.617061   0.084094
H  -4.894741  -0.108014   0.327877
H  -3.765007   1.289693   0.112221
H  -2.796300  -1.538644   0.198959
H  -1.273142   1.087575  -0.063766
H  -0.226993  -1.694000   0.116673
H   0.778398  -0.145748   0.135215

