%chk=/home/boittier/MDCM/nms_sampling/butadiene_geom.xyz.dir/butadiene_2344.chk
%nproc=8
%mem=16000MB
#p B2PLYPD3/Def2QZVP 

butadiene

0 1
C  -3.801276   0.274076  -0.040593
C  -2.710181  -0.557480   0.137520
C  -1.409807   0.042364   0.047562
C  -0.265433  -0.629618  -0.006141
H  -4.872797  -0.207495  -0.266242
H  -3.909738   1.345800  -0.071300
H  -2.829658  -1.652193   0.138378
H  -1.326059   1.111291   0.224301
H  -0.271333  -1.701080  -0.068493
H   0.646461  -0.106818  -0.254430

