%chk=/home/boittier/MDCM/nms_sampling/butadiene_geom.xyz.dir/butadiene_1038.chk
%nproc=8
%mem=16000MB
#p B2PLYPD3/Def2QZVP 

butadiene

0 1
C  -3.852851   0.210988   0.049649
C  -2.712762  -0.467883   0.017385
C  -1.377919   0.070021  -0.035844
C  -0.263837  -0.669322   0.081488
H  -4.823209  -0.268460   0.022753
H  -3.960645   1.286983   0.104838
H  -2.707714  -1.546107  -0.130881
H  -1.277862   1.129189  -0.148788
H  -0.308690  -1.741678   0.103615
H   0.744202  -0.185145  -0.022545

