%chk=/home/boittier/MDCM/nms_sampling/butadiene_geom.xyz.dir/butadiene_2696.chk
%nproc=8
%mem=16000MB
#p B2PLYPD3/Def2QZVP 

butadiene

0 1
C  -3.798487   0.251964   0.034578
C  -2.715829  -0.544150  -0.006742
C  -1.410557   0.031370  -0.033440
C  -0.303702  -0.627111   0.071666
H  -4.766453  -0.166002   0.134809
H  -3.630491   1.385336   0.287500
H  -2.757551  -1.621778  -0.126853
H  -1.254872   1.209109  -0.074964
H  -0.219477  -1.701459   0.385656
H   0.583657  -0.089856  -0.112141
