%chk=/home/boittier/MDCM/nms_sampling/butadiene_geom.xyz.dir/butadiene_300.chk
%nproc=8
%mem=16000MB
#p B2PLYPD3/Def2QZVP 

butadiene

0 1
C  -3.843191   0.221230  -0.001409
C  -2.722911  -0.503995   0.054157
C  -1.379506   0.088588   0.042618
C  -0.268294  -0.665941   0.005479
H  -4.819727  -0.252333  -0.019947
H  -3.794353   1.289257  -0.024079
H  -2.729462  -1.570640   0.120770
H  -1.297473   1.189736   0.013780
H  -0.307658  -1.725219   0.076026
H   0.702824  -0.209810  -0.029617

