%chk=/home/boittier/MDCM/nms_sampling/butadiene_geom.xyz.dir/butadiene_967.chk
%nproc=8
%mem=16000MB
#p B2PLYPD3/Def2QZVP 

butadiene

0 1
C  -3.828366   0.223665  -0.019481
C  -2.712371  -0.488550   0.087949
C  -1.396783   0.073760   0.045278
C  -0.273429  -0.659632  -0.010832
H  -4.751859  -0.318690   0.048031
H  -3.818459   1.312928  -0.162192
H  -2.730492  -1.573590   0.118585
H  -1.322535   1.141924   0.103770
H  -0.408624  -1.749178  -0.053319
H   0.755418  -0.202310   0.085876

