%chk=/home/boittier/MDCM/nms_sampling/butadiene_geom.xyz.dir/butadiene_1170.chk
%nproc=8
%mem=16000MB
#p B2PLYPD3/Def2QZVP 

butadiene

0 1
C  -3.842976   0.250495   0.055690
C  -2.736535  -0.524493  -0.006100
C  -1.377623   0.055072  -0.005802
C  -0.251211  -0.642885   0.054830
H  -4.811789  -0.260853   0.054412
H  -3.798281   1.303272   0.071434
H  -2.834220  -1.594997  -0.094385
H  -1.376113   1.128369  -0.195936
H  -0.190443  -1.739327   0.229985
H   0.700052  -0.123566   0.033135
