%chk=/home/boittier/MDCM/nms_sampling/butadiene_geom.xyz.dir/butadiene_2120.chk
%nproc=8
%mem=16000MB
#p B2PLYPD3/Def2QZVP 

butadiene

0 1
C  -3.810254   0.199791  -0.036746
C  -2.680974  -0.460336   0.082290
C  -1.393444   0.103242   0.117745
C  -0.302519  -0.697545  -0.012109
H  -4.796670  -0.251047  -0.093307
H  -3.969149   1.258233  -0.113147
H  -2.764798  -1.574118   0.205075
H  -1.428618   1.194747  -0.081192
H  -0.352996  -1.697797  -0.136489
H   0.718389  -0.264663  -0.256803

