%chk=/home/boittier/MDCM/nms_sampling/butadiene_geom.xyz.dir/butadiene_1993.chk
%nproc=8
%mem=16000MB
#p B2PLYPD3/Def2QZVP 

butadiene

0 1
C  -3.868075   0.180205  -0.009414
C  -2.715736  -0.427761   0.066094
C  -1.352101   0.078962   0.046144
C  -0.281449  -0.691146  -0.013400
H  -4.771010  -0.314423   0.081690
H  -3.875802   1.225462  -0.080408
H  -2.687206  -1.455282   0.145398
H  -1.185703   1.148410  -0.061580
H  -0.386023  -1.766394  -0.047166
H   0.672644  -0.099875   0.252579

