%chk=/home/boittier/MDCM/nms_sampling/butadiene_geom.xyz.dir/butadiene_2765.chk
%nproc=8
%mem=16000MB
#p B2PLYPD3/Def2QZVP 

butadiene

0 1
C  -3.831539   0.269970  -0.019682
C  -2.749800  -0.538098   0.109938
C  -1.390995   0.027667   0.026795
C  -0.231412  -0.619211   0.002157
H  -4.773037  -0.272911  -0.104236
H  -3.927261   1.360331  -0.219214
H  -2.847198  -1.609453   0.199071
H  -1.328662   1.067544   0.302816
H  -0.132011  -1.681012  -0.139922
H   0.671306  -0.187660  -0.065196

