%chk=/home/boittier/MDCM/nms_sampling/butadiene_geom.xyz.dir/butadiene_2406.chk
%nproc=8
%mem=16000MB
#p B2PLYPD3/Def2QZVP 

butadiene

0 1
C  -3.842804   0.177802   0.018174
C  -2.692506  -0.493858   0.027068
C  -1.353202   0.135412  -0.011407
C  -0.316353  -0.684698   0.036055
H  -4.845295  -0.226068   0.166285
H  -3.797642   1.348783   0.039851
H  -2.750067  -1.522725   0.154649
H  -1.233809   1.250560  -0.078208
H  -0.450743  -1.803489  -0.069399
H   0.693791  -0.254748   0.314668

