%chk=/home/boittier/MDCM/nms_sampling/butadiene_geom.xyz.dir/butadiene_2189.chk
%nproc=8
%mem=16000MB
#p B2PLYPD3/Def2QZVP 

butadiene

0 1
C  -3.817834   0.246881   0.075494
C  -2.720949  -0.574828  -0.016573
C  -1.390704   0.062134  -0.095008
C  -0.271180  -0.630737   0.117840
H  -4.917997   0.018431   0.058988
H  -3.717611   1.380402   0.205593
H  -2.843076  -1.669385  -0.097010
H  -1.433885   1.203762  -0.027026
H  -0.170356  -1.694099   0.190025
H   0.675061  -0.144117  -0.010172
