%chk=/home/boittier/MDCM/nms_sampling/butadiene_geom.xyz.dir/butadiene_2097.chk
%nproc=8
%mem=16000MB
#p B2PLYPD3/Def2QZVP 

butadiene

0 1
C  -3.809680   0.269445   0.115991
C  -2.735479  -0.551190  -0.062152
C  -1.399492   0.053727  -0.085994
C  -0.262307  -0.643054   0.102177
H  -4.774162  -0.209897   0.040084
H  -3.721378   1.356284   0.039960
H  -2.788289  -1.657951   0.126180
H  -1.427905   1.093367  -0.087960
H  -0.159517  -1.676180   0.094471
H   0.556547  -0.096554   0.289214
