%chk=/home/boittier/MDCM/nms_sampling/butadiene_geom.xyz.dir/butadiene_2805.chk
%nproc=8
%mem=16000MB
#p B2PLYPD3/Def2QZVP 

butadiene

0 1
C  -3.828539   0.246297  -0.025287
C  -2.726807  -0.507135   0.083857
C  -1.400482   0.026606   0.037698
C  -0.240890  -0.638129  -0.011011
H  -4.809126  -0.123954  -0.044444
H  -3.911767   1.293942  -0.079016
H  -2.867421  -1.587508   0.378925
H  -1.433892   1.020287   0.178192
H  -0.145725  -1.691409  -0.163015
H   0.709321  -0.088712   0.130736

