%chk=/home/boittier/MDCM/nms_sampling/butadiene_geom.xyz.dir/butadiene_846.chk
%nproc=8
%mem=16000MB
#p B2PLYPD3/Def2QZVP 

butadiene

0 1
C  -3.836115   0.228043   0.031919
C  -2.723313  -0.503777   0.022507
C  -1.390592   0.057925   0.014613
C  -0.258341  -0.645700   0.033333
H  -4.800095  -0.248884   0.002936
H  -3.840284   1.328775   0.029405
H  -2.827233  -1.577639   0.006677
H  -1.279005   1.151838  -0.122759
H  -0.274903  -1.727985   0.137413
H   0.715568  -0.179181   0.027151
