%chk=/home/boittier/MDCM/nms_sampling/butadiene_geom.xyz.dir/butadiene_2055.chk
%nproc=8
%mem=16000MB
#p B2PLYPD3/Def2QZVP 

butadiene

0 1
C  -3.865924   0.247320   0.039197
C  -2.732970  -0.524999   0.009442
C  -1.354026   0.057838  -0.014912
C  -0.239274  -0.640651   0.086904
H  -4.820508  -0.208191   0.194189
H  -3.797988   1.244430  -0.012789
H  -2.821712  -1.604778  -0.150455
H  -1.467874   1.144962  -0.114399
H  -0.324541  -1.728233   0.037508
H   0.708891  -0.163483  -0.109753

