%chk=/home/boittier/MDCM/nms_sampling/butadiene_geom.xyz.dir/butadiene_298.chk
%nproc=8
%mem=16000MB
#p B2PLYPD3/Def2QZVP 

butadiene

0 1
C  -3.835552   0.228750   0.004096
C  -2.720777  -0.513787   0.045451
C  -1.387105   0.069494   0.041883
C  -0.266518  -0.648357   0.006556
H  -4.841313  -0.207942  -0.010546
H  -3.777658   1.315534  -0.018428
H  -2.794504  -1.571835   0.106101
H  -1.333632   1.146887   0.003692
H  -0.244678  -1.730307   0.118964
H   0.699568  -0.202565  -0.033254

