%chk=/home/boittier/MDCM/nms_sampling/butadiene_geom.xyz.dir/butadiene_1017.chk
%nproc=8
%mem=16000MB
#p B2PLYPD3/Def2QZVP 

butadiene

0 1
C  -3.844625   0.235920  -0.008601
C  -2.739825  -0.522396   0.060439
C  -1.375184   0.052885   0.043412
C  -0.253209  -0.636057   0.001791
H  -4.818194  -0.233550   0.115917
H  -3.774124   1.339828  -0.143109
H  -2.826184  -1.604483   0.093393
H  -1.290057   1.172805   0.088512
H  -0.264477  -1.697208   0.022992
H   0.727483  -0.166774   0.025384
