%chk=/home/boittier/MDCM/nms_sampling/butadiene_geom.xyz.dir/butadiene_2313.chk
%nproc=8
%mem=16000MB
#p B2PLYPD3/Def2QZVP 

butadiene

0 1
C  -3.884513   0.198535   0.070280
C  -2.736233  -0.472190   0.013803
C  -1.339117   0.106700  -0.029807
C  -0.235083  -0.677989   0.058671
H  -4.757095  -0.264053  -0.006226
H  -4.040860   1.254139  -0.102695
H  -2.753815  -1.594426  -0.032836
H  -1.305159   1.174166  -0.123680
H  -0.411061  -1.754076   0.010837
H   0.771454  -0.267737   0.213233

