%chk=/home/boittier/MDCM/nms_sampling/butadiene_geom.xyz.dir/butadiene_364.chk
%nproc=8
%mem=16000MB
#p B2PLYPD3/Def2QZVP 

butadiene

0 1
C  -3.828631   0.231894   0.031672
C  -2.710536  -0.511034   0.019036
C  -1.396906   0.058574  -0.011889
C  -0.271242  -0.647558   0.050622
H  -4.846329  -0.182860   0.018774
H  -3.763580   1.327421   0.111945
H  -2.794457  -1.603299   0.042313
H  -1.350667   1.138026  -0.074712
H  -0.236617  -1.729113   0.117626
H   0.663703  -0.159043   0.032611

