%chk=/home/boittier/MDCM/nms_sampling/butadiene_geom.xyz.dir/butadiene_328.chk
%nproc=8
%mem=16000MB
#p B2PLYPD3/Def2QZVP 

butadiene

0 1
C  -3.843204   0.210890   0.032212
C  -2.707244  -0.493722   0.012929
C  -1.380648   0.096657   0.007292
C  -0.275963  -0.667875   0.052301
H  -4.842849  -0.227225   0.047930
H  -3.794876   1.267880   0.051800
H  -2.788762  -1.591038   0.018985
H  -1.294978   1.164145  -0.116838
H  -0.330288  -1.746539   0.090682
H   0.707397  -0.220682  -0.037854
