%chk=/home/boittier/MDCM/nms_sampling/butadiene_geom.xyz.dir/butadiene_1758.chk
%nproc=8
%mem=16000MB
#p B2PLYPD3/Def2QZVP 

butadiene

0 1
C  -3.849493   0.235784   0.058925
C  -2.729124  -0.519956  -0.008071
C  -1.396133   0.040033  -0.038906
C  -0.247427  -0.624501   0.078243
H  -4.873113  -0.155722   0.022450
H  -3.699620   1.314800   0.104083
H  -2.783753  -1.593335   0.072820
H  -1.271837   1.138668  -0.096215
H  -0.220383  -1.717436   0.062492
H   0.716549  -0.189081   0.076933

