%chk=/home/boittier/MDCM/nms_sampling/butadiene_geom.xyz.dir/butadiene_373.chk
%nproc=8
%mem=16000MB
#p B2PLYPD3/Def2QZVP 

butadiene

0 1
C  -3.850402   0.214667   0.032378
C  -2.721587  -0.482511   0.019352
C  -1.380705   0.074874  -0.010064
C  -0.258984  -0.664492   0.053192
H  -4.796412  -0.255816   0.003932
H  -3.866610   1.294334   0.094236
H  -2.740098  -1.565638   0.054296
H  -1.289384   1.151883  -0.064231
H  -0.293853  -1.723464   0.094991
H   0.712196  -0.210799   0.001980

