%chk=/home/boittier/MDCM/nms_sampling/butadiene_geom.xyz.dir/butadiene_205.chk
%nproc=8
%mem=16000MB
#p B2PLYPD3/Def2QZVP 

butadiene

0 1
C  -3.846669   0.227216   0.005738
C  -2.721274  -0.492540   0.046197
C  -1.382142   0.078937   0.033700
C  -0.260268  -0.662796   0.012925
H  -4.771104  -0.319206   0.010875
H  -3.865116   1.277377  -0.012000
H  -2.759098  -1.559837   0.052199
H  -1.305590   1.150802   0.008596
H  -0.320480  -1.754227   0.141170
H   0.732316  -0.202983  -0.048921

