%chk=/home/boittier/MDCM/nms_sampling/butadiene_geom.xyz.dir/butadiene_1173.chk
%nproc=8
%mem=16000MB
#p B2PLYPD3/Def2QZVP 

butadiene

0 1
C  -3.844703   0.216422   0.000988
C  -2.726814  -0.474028   0.074450
C  -1.375233   0.070391   0.022076
C  -0.261774  -0.654581   0.008437
H  -4.788167  -0.332327  -0.019946
H  -3.926078   1.252896  -0.180446
H  -2.816048  -1.589315   0.164610
H  -1.231850   1.172439   0.170686
H  -0.311382  -1.752147  -0.069390
H   0.762035  -0.242631   0.049106
