%chk=/home/boittier/MDCM/nms_sampling/butadiene_geom.xyz.dir/butadiene_2309.chk
%nproc=8
%mem=16000MB
#p B2PLYPD3/Def2QZVP 

butadiene

0 1
C  -3.849027   0.191742   0.032144
C  -2.703482  -0.489369   0.017089
C  -1.357912   0.098747  -0.061256
C  -0.301653  -0.666619   0.074039
H  -4.882291  -0.220321   0.294885
H  -3.812737   1.302978   0.091858
H  -2.730337  -1.544782  -0.077394
H  -1.186060   1.227583  -0.020399
H  -0.409889  -1.741470   0.066612
H   0.738063  -0.237810   0.238655
