%chk=/home/boittier/MDCM/nms_sampling/butadiene_geom.xyz.dir/butadiene_21.chk
%nproc=8
%mem=16000MB
#p B2PLYPD3/Def2QZVP 

butadiene

0 1
C  -3.853199   0.217216   0.010774
C  -2.727766  -0.487625   0.045764
C  -1.378488   0.078925   0.024733
C  -0.256079  -0.660512   0.024902
H  -4.821389  -0.271136   0.024519
H  -3.808872   1.289244  -0.064381
H  -2.724657  -1.588499   0.123025
H  -1.297924   1.160637  -0.007893
H  -0.308273  -1.747918  -0.032249
H   0.734627  -0.214757   0.034579

