%chk=/home/boittier/MDCM/nms_sampling/butadiene_geom.xyz.dir/butadiene_1799.chk
%nproc=8
%mem=16000MB
#p B2PLYPD3/Def2QZVP 

butadiene

0 1
C  -3.840746   0.216100   0.040897
C  -2.699805  -0.482181   0.026117
C  -1.389390   0.080207  -0.015393
C  -0.281777  -0.656436   0.065713
H  -4.756252  -0.313153   0.004906
H  -3.869156   1.270632   0.059764
H  -2.795669  -1.550804  -0.121944
H  -1.253065   1.151685  -0.125778
H  -0.355781  -1.764748   0.121740
H   0.754654  -0.279287  -0.062750
