%chk=/home/boittier/MDCM/nms_sampling/butadiene_geom.xyz.dir/butadiene_2861.chk
%nproc=8
%mem=16000MB
#p B2PLYPD3/Def2QZVP 

butadiene

0 1
C  -3.859988   0.200910  -0.038573
C  -2.723077  -0.436949   0.093929
C  -1.376656   0.071199   0.005915
C  -0.248316  -0.670282   0.011419
H  -4.660947  -0.482081   0.129621
H  -3.964834   1.319061  -0.019226
H  -2.751816  -1.557587   0.187973
H  -1.212684   1.193593   0.265779
H  -0.469198  -1.753968  -0.076288
H   0.753806  -0.265681   0.051942
