%chk=/home/boittier/MDCM/nms_sampling/butadiene_geom.xyz.dir/butadiene_1700.chk
%nproc=8
%mem=16000MB
#p B2PLYPD3/Def2QZVP 

butadiene

0 1
C  -3.851900   0.208197  -0.012568
C  -2.723569  -0.467468   0.080454
C  -1.377250   0.075340   0.035257
C  -0.260243  -0.663537   0.014771
H  -4.728432  -0.344664   0.037025
H  -3.865494   1.299175  -0.164550
H  -2.765874  -1.523993   0.138225
H  -1.310207   1.165233   0.099374
H  -0.360203  -1.792010  -0.150725
H   0.770611  -0.219581  -0.000007
