%chk=/home/boittier/MDCM/nms_sampling/butadiene_geom.xyz.dir/butadiene_2093.chk
%nproc=8
%mem=16000MB
#p B2PLYPD3/Def2QZVP 

butadiene

0 1
C  -3.800270   0.227178  -0.071272
C  -2.704170  -0.527953   0.109269
C  -1.414452   0.067288   0.078685
C  -0.301108  -0.647752  -0.034192
H  -4.802283  -0.134389   0.044634
H  -3.653256   1.359110  -0.020993
H  -2.900889  -1.569843   0.383565
H  -1.292054   1.125166   0.160912
H  -0.155082  -1.696481  -0.174536
H   0.634544  -0.135246   0.042069

