%chk=/home/boittier/MDCM/nms_sampling/butadiene_geom.xyz.dir/butadiene_341.chk
%nproc=8
%mem=16000MB
#p B2PLYPD3/Def2QZVP 

butadiene

0 1
C  -3.838782   0.217548   0.040037
C  -2.713286  -0.492458   0.022574
C  -1.384121   0.081027  -0.002280
C  -0.282210  -0.664599   0.042674
H  -4.784077  -0.270114  -0.024606
H  -3.782516   1.293969   0.043606
H  -2.730407  -1.575388  -0.010846
H  -1.276843   1.192335  -0.115788
H  -0.330356  -1.746118   0.132624
H   0.710395  -0.191314   0.045326
