%chk=/home/boittier/MDCM/nms_sampling/butadiene_geom.xyz.dir/butadiene_804.chk
%nproc=8
%mem=16000MB
#p B2PLYPD3/Def2QZVP 

butadiene

0 1
C  -3.836798   0.233010   0.006226
C  -2.724831  -0.519375   0.047914
C  -1.388037   0.065224   0.027964
C  -0.261015  -0.647894   0.014499
H  -4.823517  -0.179225   0.050467
H  -3.760387   1.309667  -0.060747
H  -2.745618  -1.590078   0.122901
H  -1.349303   1.156147  -0.000075
H  -0.304228  -1.718826   0.002146
H   0.700823  -0.171009   0.082402

