%chk=/home/boittier/MDCM/nms_sampling/butadiene_geom.xyz.dir/butadiene_2068.chk
%nproc=8
%mem=16000MB
#p B2PLYPD3/Def2QZVP 

butadiene

0 1
C  -3.812292   0.209140  -0.025371
C  -2.678443  -0.476613   0.085297
C  -1.388510   0.067288  -0.005798
C  -0.307816  -0.653949   0.015108
H  -4.800197  -0.236769   0.118300
H  -3.892151   1.309278  -0.026581
H  -2.828447  -1.564495   0.172934
H  -1.375623   1.087383   0.261237
H  -0.436079  -1.703124  -0.046130
H   0.745270  -0.263527   0.098953
