%chk=/home/boittier/MDCM/nms_sampling/butadiene_geom.xyz.dir/butadiene_1538.chk
%nproc=8
%mem=16000MB
#p B2PLYPD3/Def2QZVP 

butadiene

0 1
C  -3.831205   0.222758   0.015229
C  -2.688214  -0.497082   0.049894
C  -1.390520   0.092520   0.023223
C  -0.285459  -0.669216   0.015323
H  -4.776120  -0.243849  -0.064256
H  -3.880715   1.264592  -0.079009
H  -2.821642  -1.586378   0.178452
H  -1.366276   1.175888   0.042516
H  -0.316996  -1.758669  -0.012055
H   0.672916  -0.248722   0.053577

