%chk=/home/boittier/MDCM/nms_sampling/butadiene_geom.xyz.dir/butadiene_1756.chk
%nproc=8
%mem=16000MB
#p B2PLYPD3/Def2QZVP 

butadiene

0 1
C  -3.839694   0.209480   0.041686
C  -2.717663  -0.500909   0.003524
C  -1.378974   0.114647  -0.002834
C  -0.281020  -0.674376   0.042772
H  -4.804643  -0.258087   0.014854
H  -3.757438   1.296114   0.110142
H  -2.735412  -1.564826   0.027103
H  -1.324000   1.202920  -0.118617
H  -0.299700  -1.803802   0.208195
H   0.706807  -0.244788   0.047819
