%chk=/home/boittier/MDCM/nms_sampling/butadiene_geom.xyz.dir/butadiene_2533.chk
%nproc=8
%mem=16000MB
#p B2PLYPD3/Def2QZVP 

butadiene

0 1
C  -3.829724   0.171077   0.088450
C  -2.699277  -0.462972  -0.052027
C  -1.384286   0.109558  -0.031808
C  -0.292974  -0.671393   0.073161
H  -4.894786  -0.124224   0.142554
H  -3.745175   1.219588  -0.060223
H  -2.760457  -1.484216   0.106617
H  -1.313448   1.157351  -0.084304
H  -0.394908  -1.811563   0.114412
H   0.736568  -0.294218   0.191275

