%chk=/home/boittier/MDCM/nms_sampling/butadiene_geom.xyz.dir/butadiene_2393.chk
%nproc=8
%mem=16000MB
#p B2PLYPD3/Def2QZVP 

butadiene

0 1
C  -3.858691   0.194456   0.092313
C  -2.721284  -0.448220  -0.028159
C  -1.378110   0.116147  -0.090638
C  -0.265081  -0.712415   0.102900
H  -4.721650  -0.385894   0.097503
H  -3.888378   1.242712   0.048892
H  -2.773310  -1.474668  -0.062572
H  -1.260185   1.187079  -0.000875
H  -0.210694  -1.769425   0.176199
H   0.704829  -0.156232   0.146151

