%chk=/home/boittier/MDCM/nms_sampling/butadiene_geom.xyz.dir/butadiene_2324.chk
%nproc=8
%mem=16000MB
#p B2PLYPD3/Def2QZVP 

butadiene

0 1
C  -3.843459   0.186742  -0.025757
C  -2.684547  -0.458596   0.077959
C  -1.364006   0.120836   0.084268
C  -0.310842  -0.707543  -0.033567
H  -4.835108  -0.306290   0.188477
H  -3.949091   1.267618  -0.346783
H  -2.753482  -1.543668   0.097579
H  -1.271131   1.291780   0.175149
H  -0.294274  -1.745164   0.008849
H   0.693634  -0.241302   0.032129

