%chk=/home/boittier/MDCM/nms_sampling/butadiene_geom.xyz.dir/butadiene_1643.chk
%nproc=8
%mem=16000MB
#p B2PLYPD3/Def2QZVP 

butadiene

0 1
C  -3.859200   0.216736   0.060108
C  -2.718116  -0.485024  -0.014563
C  -1.373051   0.080551  -0.033126
C  -0.249290  -0.664982   0.064798
H  -4.818126  -0.282774   0.086027
H  -3.885799   1.292058   0.018052
H  -2.716938  -1.567839   0.122226
H  -1.339154   1.187887  -0.029682
H  -0.372070  -1.768899   0.071360
H   0.706166  -0.228823   0.156237

