%chk=/home/boittier/MDCM/nms_sampling/butadiene_geom.xyz.dir/butadiene_75.chk
%nproc=8
%mem=16000MB
#p B2PLYPD3/Def2QZVP 

butadiene

0 1
C  -3.839808   0.223835   0.008065
C  -2.715355  -0.501196   0.053427
C  -1.381776   0.078229   0.028366
C  -0.267616  -0.660525   0.010828
H  -4.808628  -0.256229   0.011211
H  -3.848196   1.299767  -0.067606
H  -2.738073  -1.557777   0.110982
H  -1.338356   1.165437  -0.012305
H  -0.359451  -1.733920   0.004243
H   0.731667  -0.209715   0.096534

