%chk=/home/boittier/MDCM/nms_sampling/butadiene_geom.xyz.dir/butadiene_2151.chk
%nproc=8
%mem=16000MB
#p B2PLYPD3/Def2QZVP 

butadiene

0 1
C  -3.867769   0.193666   0.059724
C  -2.718506  -0.481304  -0.011437
C  -1.344182   0.101031  -0.062664
C  -0.269265  -0.661464   0.069926
H  -4.871161  -0.265113   0.248365
H  -3.963189   1.258179   0.018410
H  -2.852636  -1.554387  -0.038473
H  -1.222601   1.182788   0.029404
H  -0.392929  -1.777332   0.176649
H   0.861552  -0.265089   0.245673
