%chk=/home/boittier/MDCM/nms_sampling/butadiene_geom.xyz.dir/butadiene_1546.chk
%nproc=8
%mem=16000MB
#p B2PLYPD3/Def2QZVP 

butadiene

0 1
C  -3.862386   0.210039   0.017651
C  -2.717038  -0.476906   0.054786
C  -1.373968   0.074609   0.008672
C  -0.247283  -0.657535   0.021645
H  -4.835969  -0.263084   0.056146
H  -3.909257   1.251332  -0.158248
H  -2.789639  -1.578799   0.057217
H  -1.251596   1.167615   0.074639
H  -0.381650  -1.733924  -0.011121
H   0.753701  -0.246400   0.108395

