%chk=/home/boittier/MDCM/nms_sampling/butadiene_geom.xyz.dir/butadiene_2353.chk
%nproc=8
%mem=16000MB
#p B2PLYPD3/Def2QZVP 

butadiene

0 1
C  -3.833044   0.217083  -0.077757
C  -2.714931  -0.507906   0.131328
C  -1.366520   0.110134   0.093615
C  -0.282280  -0.665622  -0.031721
H  -4.696468  -0.226479  -0.071808
H  -3.914222   1.261757   0.035756
H  -2.741030  -1.624424   0.100198
H  -1.338617   1.171958   0.145586
H  -0.513440  -1.758384   0.071895
H   0.735191  -0.273223  -0.316584
