%chk=/home/boittier/MDCM/nms_sampling/butadiene_geom.xyz.dir/butadiene_1220.chk
%nproc=8
%mem=16000MB
#p B2PLYPD3/Def2QZVP 

butadiene

0 1
C  -3.828391   0.225206   0.055939
C  -2.717968  -0.509906  -0.011874
C  -1.406110   0.054763  -0.025012
C  -0.267561  -0.643618   0.080771
H  -4.843729  -0.171310   0.182495
H  -3.718913   1.328048  -0.021030
H  -2.758639  -1.590515  -0.046674
H  -1.281345   1.191689  -0.088725
H  -0.276915  -1.714570   0.067625
H   0.718848  -0.175271   0.024407
