%chk=/home/boittier/MDCM/nms_sampling/butadiene_geom.xyz.dir/butadiene_1962.chk
%nproc=8
%mem=16000MB
#p B2PLYPD3/Def2QZVP 

butadiene

0 1
C  -3.842980   0.247673  -0.037013
C  -2.711369  -0.489133   0.111912
C  -1.380352   0.007088   0.061735
C  -0.252751  -0.632334  -0.044978
H  -4.891546  -0.213753   0.036414
H  -3.907933   1.309746  -0.252068
H  -2.850783  -1.643293   0.195558
H  -1.432334   1.097168   0.227346
H  -0.147465  -1.698114  -0.057155
H   0.654081  -0.106054   0.161846

