%chk=/home/boittier/MDCM/nms_sampling/butadiene_geom.xyz.dir/butadiene_2479.chk
%nproc=8
%mem=16000MB
#p B2PLYPD3/Def2QZVP 

butadiene

0 1
C  -3.887333   0.165810   0.022838
C  -2.736542  -0.419814   0.000434
C  -1.348697   0.103089  -0.019237
C  -0.255651  -0.688731   0.063564
H  -4.792276  -0.346572   0.378121
H  -3.789091   1.238048  -0.043664
H  -2.756189  -1.514846   0.032211
H  -1.230989   1.131510   0.054444
H  -0.333070  -1.736860   0.029910
H   0.811516  -0.250066   0.104975

