%chk=/home/boittier/MDCM/nms_sampling/butadiene_geom.xyz.dir/butadiene_1514.chk
%nproc=8
%mem=16000MB
#p B2PLYPD3/Def2QZVP 

butadiene

0 1
C  -3.833630   0.213438  -0.011890
C  -2.706480  -0.486710   0.082308
C  -1.399434   0.093203   0.029471
C  -0.276261  -0.664184   0.011450
H  -4.737914  -0.275521  -0.000827
H  -3.874243   1.284240  -0.040199
H  -2.730566  -1.548221   0.029389
H  -1.292450   1.144174   0.023332
H  -0.371318  -1.758446   0.001000
H   0.786405  -0.299708  -0.009573
