%chk=/home/boittier/MDCM/nms_sampling/butadiene_geom.xyz.dir/butadiene_1327.chk
%nproc=8
%mem=16000MB
#p B2PLYPD3/Def2QZVP 

butadiene

0 1
C  -3.832859   0.214226  -0.009542
C  -2.707380  -0.482722   0.071173
C  -1.392157   0.084575   0.036757
C  -0.278064  -0.666110  -0.002898
H  -4.752855  -0.303271  -0.096165
H  -3.852136   1.290585   0.043016
H  -2.829119  -1.584448   0.147300
H  -1.269707   1.161395   0.021601
H  -0.313551  -1.697900   0.078544
H   0.731626  -0.259480   0.009453

