%chk=/home/boittier/MDCM/nms_sampling/butadiene_geom.xyz.dir/butadiene_1652.chk
%nproc=8
%mem=16000MB
#p B2PLYPD3/Def2QZVP 

butadiene

0 1
C  -3.848249   0.204241   0.023148
C  -2.717757  -0.481511   0.024594
C  -1.384403   0.102740   0.006394
C  -0.261386  -0.681763   0.044812
H  -4.820084  -0.274424   0.025869
H  -3.775219   1.285041   0.124005
H  -2.725348  -1.526123   0.014156
H  -1.354142   1.173573  -0.159202
H  -0.343542  -1.738110   0.096999
H   0.740157  -0.228403   0.016333

