%chk=/home/boittier/MDCM/nms_sampling/butadiene_geom.xyz.dir/butadiene_9.chk
%nproc=8
%mem=16000MB
#p B2PLYPD3/Def2QZVP 

butadiene

0 1
C  -3.851281   0.212512   0.007516
C  -2.721984  -0.489046   0.051715
C  -1.378540   0.078731   0.019169
C  -0.262103  -0.660346   0.028696
H  -4.823583  -0.250846  -0.033057
H  -3.797596   1.301603   0.023714
H  -2.818949  -1.580103   0.093006
H  -1.280108   1.150846  -0.025341
H  -0.264335  -1.737393   0.016605
H   0.732961  -0.188922  -0.023764
