%chk=/home/boittier/MDCM/nms_sampling/butadiene_geom.xyz.dir/butadiene_565.chk
%nproc=8
%mem=16000MB
#p B2PLYPD3/Def2QZVP 

butadiene

0 1
C  -3.849874   0.216634   0.012595
C  -2.725510  -0.486984   0.044472
C  -1.376114   0.074985   0.030524
C  -0.264425  -0.659466   0.019974
H  -4.806188  -0.299257   0.054283
H  -3.818366   1.312602  -0.117318
H  -2.762978  -1.572362   0.076829
H  -1.240262   1.154466   0.013211
H  -0.282242  -1.743824   0.014300
H   0.690201  -0.192314   0.016241

