%chk=/home/boittier/MDCM/nms_sampling/butadiene_geom.xyz.dir/butadiene_420.chk
%nproc=8
%mem=16000MB
#p B2PLYPD3/Def2QZVP 

butadiene

0 1
C  -3.835746   0.238952   0.015379
C  -2.712352  -0.518837   0.048488
C  -1.392611   0.058773   0.005405
C  -0.265243  -0.642482   0.038012
H  -4.836005  -0.198075   0.018242
H  -3.801272   1.319148  -0.006662
H  -2.771328  -1.605722   0.024004
H  -1.362982   1.120797  -0.019740
H  -0.305573  -1.725366   0.024549
H   0.735718  -0.176774   0.002782
