%chk=/home/boittier/MDCM/nms_sampling/butadiene_geom.xyz.dir/butadiene_1822.chk
%nproc=8
%mem=16000MB
#p B2PLYPD3/Def2QZVP 

butadiene

0 1
C  -3.850139   0.246119   0.053564
C  -2.727780  -0.516425   0.013131
C  -1.392919   0.045099  -0.024416
C  -0.242510  -0.632411   0.069957
H  -4.815823  -0.241780  -0.029600
H  -3.839518   1.323059   0.098837
H  -2.782892  -1.589869  -0.073545
H  -1.336012   1.128356  -0.185970
H  -0.215187  -1.747290   0.103796
H   0.750141  -0.203161   0.023362
