%chk=/home/boittier/MDCM/nms_sampling/butadiene_geom.xyz.dir/butadiene_1431.chk
%nproc=8
%mem=16000MB
#p B2PLYPD3/Def2QZVP 

butadiene

0 1
C  -3.857085   0.196593  -0.000491
C  -2.733470  -0.474012   0.047474
C  -1.373354   0.091495   0.056041
C  -0.252917  -0.668189  -0.006012
H  -4.851190  -0.257150   0.051230
H  -3.824636   1.310794  -0.118856
H  -2.784308  -1.557498   0.147663
H  -1.257677   1.156353   0.023888
H  -0.230696  -1.747571   0.054700
H   0.734733  -0.240320   0.039163

