%chk=/home/boittier/MDCM/nms_sampling/butadiene_geom.xyz.dir/butadiene_2041.chk
%nproc=8
%mem=16000MB
#p B2PLYPD3/Def2QZVP 

butadiene

0 1
C  -3.804833   0.245205   0.059049
C  -2.704995  -0.540090  -0.014169
C  -1.401319   0.061879  -0.008066
C  -0.294223  -0.652961   0.061198
H  -4.871649  -0.050512  -0.094478
H  -3.759488   1.308579   0.138434
H  -2.836483  -1.616964   0.064947
H  -1.410991   1.055634  -0.119105
H  -0.146747  -1.667256   0.225234
H   0.660971  -0.051642  -0.089335

