%chk=/home/boittier/MDCM/nms_sampling/butadiene_geom.xyz.dir/butadiene_1714.chk
%nproc=8
%mem=16000MB
#p B2PLYPD3/Def2QZVP 

butadiene

0 1
C  -3.846195   0.241403   0.002321
C  -2.723756  -0.509656   0.046244
C  -1.383148   0.028818   0.009725
C  -0.256358  -0.638706   0.027598
H  -4.819864  -0.206572   0.047585
H  -3.847915   1.348677   0.011516
H  -2.771336  -1.560349   0.215348
H  -1.331768   1.135883   0.043789
H  -0.194341  -1.698165  -0.066247
H   0.673592  -0.118088   0.094921

