%chk=/home/boittier/MDCM/nms_sampling/butadiene_geom.xyz.dir/butadiene_1910.chk
%nproc=8
%mem=16000MB
#p B2PLYPD3/Def2QZVP 

butadiene

0 1
C  -3.860128   0.220779   0.026107
C  -2.720959  -0.491998   0.025770
C  -1.371010   0.084729  -0.022375
C  -0.261659  -0.672463   0.052076
H  -4.797385  -0.297569   0.045413
H  -3.884780   1.292091   0.136330
H  -2.718405  -1.552362   0.016668
H  -1.258728   1.184174  -0.028864
H  -0.311200  -1.784636   0.142940
H   0.713704  -0.133761   0.034346
