%chk=/home/boittier/MDCM/nms_sampling/butadiene_geom.xyz.dir/butadiene_2143.chk
%nproc=8
%mem=16000MB
#p B2PLYPD3/Def2QZVP 

butadiene

0 1
C  -3.866608   0.201255  -0.058807
C  -2.717776  -0.473992   0.092843
C  -1.345178   0.082645   0.098638
C  -0.261841  -0.649626  -0.022392
H  -4.875573  -0.275583   0.237314
H  -3.842518   1.287311  -0.233693
H  -2.812134  -1.586781   0.176223
H  -1.357290   1.100758   0.107589
H  -0.412369  -1.798023  -0.170510
H   0.755182  -0.261682  -0.045648
