%chk=/home/boittier/MDCM/nms_sampling/butadiene_geom.xyz.dir/butadiene_986.chk
%nproc=8
%mem=16000MB
#p B2PLYPD3/Def2QZVP 

butadiene

0 1
C  -3.853696   0.223055  -0.025230
C  -2.731003  -0.501897   0.082922
C  -1.379311   0.056631   0.027629
C  -0.257390  -0.637772   0.005031
H  -4.863622  -0.206634   0.063770
H  -3.780334   1.298526  -0.038561
H  -2.764882  -1.561971   0.148014
H  -1.266954   1.142302   0.124923
H  -0.225685  -1.754322  -0.043019
H   0.750453  -0.209075   0.040569

