%chk=/home/boittier/MDCM/nms_sampling/butadiene_geom.xyz.dir/butadiene_1617.chk
%nproc=8
%mem=16000MB
#p B2PLYPD3/Def2QZVP 

butadiene

0 1
C  -3.858785   0.241884   0.039220
C  -2.729439  -0.518010   0.026409
C  -1.377967   0.046856  -0.007630
C  -0.242386  -0.647807   0.045812
H  -4.842833  -0.191215  -0.055018
H  -3.755504   1.315906   0.041980
H  -2.806391  -1.574445  -0.011162
H  -1.393200   1.114872  -0.043587
H  -0.212778  -1.708994   0.161206
H   0.695871  -0.068563  -0.028068

