%chk=/home/boittier/MDCM/nms_sampling/butadiene_geom.xyz.dir/butadiene_2277.chk
%nproc=8
%mem=16000MB
#p B2PLYPD3/Def2QZVP 

butadiene

0 1
C  -3.839307   0.192269   0.033190
C  -2.724553  -0.473748   0.039275
C  -1.373085   0.147820  -0.025043
C  -0.289391  -0.708925   0.082628
H  -4.817146  -0.342852  -0.019069
H  -3.799226   1.246329   0.165816
H  -2.634913  -1.575904  -0.215866
H  -1.247296   1.281087  -0.201461
H  -0.318382  -1.771754   0.105196
H   0.713069  -0.275464  -0.142961

