%chk=/home/boittier/MDCM/nms_sampling/butadiene_geom.xyz.dir/butadiene_1830.chk
%nproc=8
%mem=16000MB
#p B2PLYPD3/Def2QZVP 

butadiene

0 1
C  -3.842378   0.240082  -0.017211
C  -2.719227  -0.510829   0.068167
C  -1.381729   0.053945   0.068052
C  -0.261968  -0.643090   0.006077
H  -4.777809  -0.263682  -0.091813
H  -3.827791   1.308038  -0.038843
H  -2.822090  -1.594926   0.167168
H  -1.274211   1.103510   0.027493
H  -0.300257  -1.728263  -0.003281
H   0.652074  -0.133920  -0.216242

