%chk=/home/boittier/MDCM/nms_sampling/butadiene_geom.xyz.dir/butadiene_2429.chk
%nproc=8
%mem=16000MB
#p B2PLYPD3/Def2QZVP 

butadiene

0 1
C  -3.823084   0.243727  -0.074781
C  -2.725004  -0.541566   0.121293
C  -1.401344   0.034011   0.119438
C  -0.254709  -0.607104  -0.043706
H  -4.893478  -0.062835   0.015049
H  -3.623256   1.339471  -0.046489
H  -2.879935  -1.643497   0.072684
H  -1.475523   1.122389   0.015317
H  -0.201697  -1.730191   0.029862
H   0.714704  -0.224890  -0.214168
