%chk=/home/boittier/MDCM/nms_sampling/butadiene_geom.xyz.dir/butadiene_1473.chk
%nproc=8
%mem=16000MB
#p B2PLYPD3/Def2QZVP 

butadiene

0 1
C  -3.823071   0.242755   0.065645
C  -2.728998  -0.527092   0.002172
C  -1.402469   0.055667  -0.042937
C  -0.254923  -0.630664   0.070582
H  -4.862711  -0.191992   0.102011
H  -3.781054   1.332903  -0.047803
H  -2.739347  -1.626319  -0.068690
H  -1.375239   1.140042  -0.054534
H  -0.287745  -1.705105   0.095125
H   0.766590  -0.259151   0.147316

