%chk=/home/boittier/MDCM/nms_sampling/butadiene_geom.xyz.dir/butadiene_6.chk
%nproc=8
%mem=16000MB
#p B2PLYPD3/Def2QZVP 

butadiene

0 1
C  -3.840864   0.227943   0.015713
C  -2.722650  -0.496956   0.042606
C  -1.381706   0.074803   0.022965
C  -0.262397  -0.661093   0.022126
H  -4.759786  -0.285940   0.059268
H  -3.868066   1.297335  -0.121410
H  -2.775502  -1.584125   0.074863
H  -1.329660   1.170407   0.044512
H  -0.300830  -1.758532   0.031074
H   0.709592  -0.181062   0.023589

