%chk=/home/boittier/MDCM/nms_sampling/butadiene_geom.xyz.dir/butadiene_817.chk
%nproc=8
%mem=16000MB
#p B2PLYPD3/Def2QZVP 

butadiene

0 1
C  -3.853412   0.223290   0.015461
C  -2.715585  -0.493298   0.038469
C  -1.374841   0.079046   0.031499
C  -0.260103  -0.664041   0.020693
H  -4.799592  -0.300757   0.059388
H  -3.881368   1.303542  -0.125776
H  -2.777932  -1.565397   0.106475
H  -1.324322   1.160724   0.009823
H  -0.320500  -1.745241  -0.000689
H   0.731947  -0.199067   0.030863
