%chk=/home/boittier/MDCM/nms_sampling/butadiene_geom.xyz.dir/butadiene_908.chk
%nproc=8
%mem=16000MB
#p B2PLYPD3/Def2QZVP 

butadiene

0 1
C  -3.844254   0.212507   0.006509
C  -2.709809  -0.496106   0.054594
C  -1.382719   0.091402   0.028830
C  -0.271447  -0.667361   0.011712
H  -4.817733  -0.226763  -0.049088
H  -3.801416   1.303881   0.008414
H  -2.738126  -1.561100   0.082892
H  -1.334599   1.175028  -0.023111
H  -0.347723  -1.774199   0.085164
H   0.713380  -0.204450   0.011131

