%chk=/home/boittier/MDCM/nms_sampling/butadiene_geom.xyz.dir/butadiene_762.chk
%nproc=8
%mem=16000MB
#p B2PLYPD3/Def2QZVP 

butadiene

0 1
C  -3.857981   0.212528   0.008451
C  -2.724977  -0.490640   0.052177
C  -1.371460   0.083485   0.026623
C  -0.262982  -0.662829   0.018607
H  -4.811043  -0.266105  -0.002047
H  -3.835101   1.311576  -0.093570
H  -2.735486  -1.563500   0.145072
H  -1.268364   1.184284   0.046639
H  -0.285552  -1.748732  -0.027773
H   0.731432  -0.224189   0.022986

