%chk=/home/boittier/MDCM/nms_sampling/butadiene_geom.xyz.dir/butadiene_1138.chk
%nproc=8
%mem=16000MB
#p B2PLYPD3/Def2QZVP 

butadiene

0 1
C  -3.838344   0.196473   0.043401
C  -2.712572  -0.472567   0.013686
C  -1.380693   0.097865  -0.039931
C  -0.285857  -0.668271   0.055728
H  -4.788558  -0.276579   0.083446
H  -3.740735   1.283212   0.058476
H  -2.746648  -1.564758   0.024665
H  -1.306779   1.203850   0.021893
H  -0.348762  -1.793290   0.141195
H   0.718450  -0.274793   0.137596

