%chk=/home/boittier/MDCM/nms_sampling/butadiene_geom.xyz.dir/butadiene_1531.chk
%nproc=8
%mem=16000MB
#p B2PLYPD3/Def2QZVP 

butadiene

0 1
C  -3.848404   0.200869  -0.013908
C  -2.703072  -0.487610   0.090141
C  -1.376226   0.095359   0.049210
C  -0.277794  -0.667971  -0.010969
H  -4.866711  -0.218202  -0.071445
H  -3.732227   1.295026  -0.058982
H  -2.766994  -1.541862   0.024124
H  -1.331204   1.158990  -0.001691
H  -0.362469  -1.761961   0.064736
H   0.692683  -0.222132   0.000325
