%chk=/home/boittier/MDCM/nms_sampling/butadiene_geom.xyz.dir/butadiene_479.chk
%nproc=8
%mem=16000MB
#p B2PLYPD3/Def2QZVP 

butadiene

0 1
C  -3.842052   0.226650   0.031629
C  -2.725829  -0.510524   0.006740
C  -1.382440   0.065254  -0.004541
C  -0.254298  -0.648081   0.051405
H  -4.852935  -0.178897   0.135166
H  -3.798338   1.323655   0.044226
H  -2.797392  -1.598869   0.067146
H  -1.358051   1.128584  -0.080386
H  -0.266397  -1.737402   0.061811
H   0.710089  -0.160704   0.085134

