%chk=/home/boittier/MDCM/nms_sampling/butadiene_geom.xyz.dir/butadiene_1095.chk
%nproc=8
%mem=16000MB
#p B2PLYPD3/Def2QZVP 

butadiene

0 1
C  -3.840665   0.215601   0.052983
C  -2.725158  -0.475608   0.001795
C  -1.380228   0.070316   0.003748
C  -0.264672  -0.656254   0.054275
H  -4.741798  -0.338211   0.046893
H  -3.870775   1.290989  -0.029169
H  -2.758640  -1.541019  -0.076129
H  -1.283210   1.164641  -0.135732
H  -0.356359  -1.792382   0.162243
H   0.727512  -0.223172  -0.028453
