%chk=/home/boittier/MDCM/nms_sampling/butadiene_geom.xyz.dir/butadiene_160.chk
%nproc=8
%mem=16000MB
#p B2PLYPD3/Def2QZVP 

butadiene

0 1
C  -3.839216   0.233854   0.015849
C  -2.723294  -0.522606   0.036064
C  -1.387544   0.070591   0.011255
C  -0.264893  -0.646121   0.032437
H  -4.831290  -0.180728  -0.002951
H  -3.767689   1.302678   0.074474
H  -2.761495  -1.599695   0.066926
H  -1.316331   1.161407  -0.057344
H  -0.251003  -1.729908   0.095435
H   0.697585  -0.201040   0.003940
