%chk=/home/boittier/MDCM/nms_sampling/butadiene_geom.xyz.dir/butadiene_1476.chk
%nproc=8
%mem=16000MB
#p B2PLYPD3/Def2QZVP 

butadiene

0 1
C  -3.808141   0.243167   0.001176
C  -2.721532  -0.517403   0.042460
C  -1.414797   0.036280   0.039670
C  -0.264536  -0.629302   0.022925
H  -4.797304  -0.206877   0.161294
H  -3.754781   1.345862  -0.152250
H  -2.834750  -1.638252   0.112097
H  -1.349911   1.128911   0.024747
H  -0.288741  -1.678047  -0.070378
H   0.740113  -0.173900   0.013688
