%chk=/home/boittier/MDCM/nms_sampling/butadiene_geom.xyz.dir/butadiene_1047.chk
%nproc=8
%mem=16000MB
#p B2PLYPD3/Def2QZVP 

butadiene

0 1
C  -3.821419   0.231349   0.024378
C  -2.726186  -0.512234   0.009733
C  -1.390580   0.055833  -0.004746
C  -0.257132  -0.639135   0.048865
H  -4.828460  -0.222384   0.146143
H  -3.751328   1.310040   0.055616
H  -2.844014  -1.601775   0.089642
H  -1.393627   1.173236  -0.017651
H  -0.356642  -1.723324   0.084817
H   0.705979  -0.190208   0.049866
