%chk=/home/boittier/MDCM/nms_sampling/butadiene_geom.xyz.dir/butadiene_1896.chk
%nproc=8
%mem=16000MB
#p B2PLYPD3/Def2QZVP 

butadiene

0 1
C  -3.832356   0.211945   0.048578
C  -2.707874  -0.488009  -0.012667
C  -1.391377   0.090732  -0.013838
C  -0.275313  -0.661336   0.074787
H  -4.801411  -0.275810   0.156710
H  -3.863755   1.281436   0.037752
H  -2.720501  -1.519067   0.017720
H  -1.320202   1.171210  -0.136714
H  -0.372048  -1.757250   0.047296
H   0.749400  -0.328381   0.032546

