%chk=/home/boittier/MDCM/nms_sampling/butadiene_geom.xyz.dir/butadiene_280.chk
%nproc=8
%mem=16000MB
#p B2PLYPD3/Def2QZVP 

butadiene

0 1
C  -3.833040   0.235514   0.020398
C  -2.720471  -0.526036   0.024375
C  -1.392172   0.071105   0.008356
C  -0.263369  -0.648995   0.040447
H  -4.848130  -0.195305   0.053272
H  -3.782889   1.328328   0.059357
H  -2.763132  -1.602716   0.047190
H  -1.318360   1.162251  -0.046159
H  -0.294590  -1.728646   0.113860
H   0.706516  -0.165437  -0.022851
