%chk=/home/boittier/MDCM/nms_sampling/butadiene_geom.xyz.dir/butadiene_451.chk
%nproc=8
%mem=16000MB
#p B2PLYPD3/Def2QZVP 

butadiene

0 1
C  -3.834613   0.232695   0.045033
C  -2.720359  -0.516371   0.014520
C  -1.384451   0.063598  -0.016502
C  -0.268448  -0.650651   0.054062
H  -4.841669  -0.180359   0.010661
H  -3.739695   1.314399   0.019891
H  -2.777498  -1.609315   0.020336
H  -1.381823   1.156389  -0.038170
H  -0.273243  -1.729746   0.113530
H   0.688975  -0.130397   0.032490

