%chk=/home/boittier/MDCM/nms_sampling/butadiene_geom.xyz.dir/butadiene_2877.chk
%nproc=8
%mem=16000MB
#p B2PLYPD3/Def2QZVP 

butadiene

0 1
C  -3.812996   0.251862  -0.032816
C  -2.713447  -0.539144   0.126892
C  -1.406127   0.027781   0.045627
C  -0.281413  -0.633876  -0.034855
H  -4.858275  -0.082620  -0.066824
H  -3.677085   1.407241  -0.312123
H  -2.659443  -1.582541   0.230314
H  -1.386908   1.038394   0.359862
H  -0.226269  -1.677942  -0.118625
H   0.572766  -0.040075   0.077752
