%chk=/home/boittier/MDCM/nms_sampling/butadiene_geom.xyz.dir/butadiene_557.chk
%nproc=8
%mem=16000MB
#p B2PLYPD3/Def2QZVP 

butadiene

0 1
C  -3.835035   0.221681   0.034695
C  -2.715685  -0.505507   0.017472
C  -1.385336   0.088778  -0.018288
C  -0.266619  -0.660510   0.044978
H  -4.813283  -0.230850   0.097826
H  -3.837633   1.284799   0.011581
H  -2.795381  -1.572633   0.045593
H  -1.351466   1.166617   0.019062
H  -0.320118  -1.758050   0.118862
H   0.728554  -0.229546   0.106431

