%chk=/home/boittier/MDCM/nms_sampling/butadiene_geom.xyz.dir/butadiene_2440.chk
%nproc=8
%mem=16000MB
#p B2PLYPD3/Def2QZVP 

butadiene

0 1
C  -3.830093   0.266407  -0.019796
C  -2.723464  -0.522379   0.091093
C  -1.399088   0.038716   0.069318
C  -0.241872  -0.641447  -0.042718
H  -4.807613  -0.291417  -0.256903
H  -3.903426   1.291552   0.023807
H  -2.952217  -1.637768   0.227752
H  -1.404033   1.118595   0.034111
H  -0.088615  -1.642603   0.134215
H   0.688023  -0.171614   0.017839

