%chk=/home/boittier/MDCM/nms_sampling/butadiene_geom.xyz.dir/butadiene_2204.chk
%nproc=8
%mem=16000MB
#p B2PLYPD3/Def2QZVP 

butadiene

0 1
C  -3.862366   0.185204   0.101307
C  -2.712765  -0.461928  -0.046786
C  -1.358155   0.126917  -0.078150
C  -0.272242  -0.690010   0.092877
H  -4.860191  -0.284557   0.029342
H  -3.843143   1.207555   0.045949
H  -2.719778  -1.614397   0.157552
H  -1.169400   1.204835  -0.056798
H  -0.473605  -1.809424   0.064515
H   0.684661  -0.202763   0.280562
