%chk=/home/boittier/MDCM/nms_sampling/butadiene_geom.xyz.dir/butadiene_1470.chk
%nproc=8
%mem=16000MB
#p B2PLYPD3/Def2QZVP 

butadiene

0 1
C  -3.855493   0.212452   0.068730
C  -2.731517  -0.493919  -0.028576
C  -1.378176   0.077131  -0.017506
C  -0.256546  -0.659634   0.071126
H  -4.824097  -0.274161   0.074556
H  -3.790714   1.321408   0.020464
H  -2.755304  -1.535705   0.044595
H  -1.226858   1.185741  -0.122669
H  -0.289018  -1.728759   0.131859
H   0.742996  -0.195568   0.043015

