%chk=/home/boittier/MDCM/nms_sampling/butadiene_geom.xyz.dir/butadiene_2278.chk
%nproc=8
%mem=16000MB
#p B2PLYPD3/Def2QZVP 

butadiene

0 1
C  -3.813763   0.225994   0.080353
C  -2.714836  -0.491090  -0.057199
C  -1.404113   0.043900  -0.046353
C  -0.296145  -0.645461   0.065579
H  -4.766958  -0.237351   0.290283
H  -3.613903   1.322530  -0.048663
H  -2.657994  -1.567798   0.058850
H  -1.270266   1.133023   0.063885
H  -0.313362  -1.694602   0.277812
H   0.572769  -0.164600   0.213935

