%chk=/home/boittier/MDCM/nms_sampling/butadiene_geom.xyz.dir/butadiene_2684.chk
%nproc=8
%mem=16000MB
#p B2PLYPD3/Def2QZVP 

butadiene

0 1
C  -3.817196   0.236397   0.008411
C  -2.712029  -0.524826   0.094828
C  -1.398593   0.066699   0.053179
C  -0.256897  -0.638087  -0.010508
H  -4.871331  -0.228448  -0.287897
H  -3.659782   1.305315  -0.070580
H  -2.872459  -1.577990  -0.008044
H  -1.492914   1.121928  -0.127077
H  -0.447032  -1.749249   0.048879
H   0.738111  -0.186156  -0.012168
