%chk=/home/boittier/MDCM/nms_sampling/butadiene_geom.xyz.dir/butadiene_1501.chk
%nproc=8
%mem=16000MB
#p B2PLYPD3/Def2QZVP 

butadiene

0 1
C  -3.836320   0.220842   0.041017
C  -2.696133  -0.489158   0.012975
C  -1.383660   0.081943  -0.008960
C  -0.287936  -0.664209   0.047390
H  -4.733084  -0.280703  -0.044754
H  -3.876201   1.287469   0.097581
H  -2.709472  -1.546036   0.050221
H  -1.353682   1.148947  -0.064218
H  -0.419591  -1.759419   0.170752
H   0.717973  -0.247074  -0.000626

