%chk=/home/boittier/MDCM/nms_sampling/butadiene_geom.xyz.dir/butadiene_2690.chk
%nproc=8
%mem=16000MB
#p B2PLYPD3/Def2QZVP 

butadiene

0 1
C  -3.798800   0.220559  -0.035157
C  -2.718605  -0.491494   0.073133
C  -1.401544   0.067511   0.090551
C  -0.290746  -0.650290  -0.049346
H  -4.739508  -0.332323   0.074948
H  -3.916928   1.293981  -0.201219
H  -2.829638  -1.572834   0.347111
H  -1.196643   1.253381   0.159396
H  -0.358303  -1.711727  -0.033745
H   0.764612  -0.276228   0.126838
