%chk=/home/boittier/MDCM/nms_sampling/butadiene_geom.xyz.dir/butadiene_2458.chk
%nproc=8
%mem=16000MB
#p B2PLYPD3/Def2QZVP 

butadiene

0 1
C  -3.871516   0.186465   0.115057
C  -2.730387  -0.441792  -0.060019
C  -1.370973   0.086217  -0.079047
C  -0.242053  -0.657538   0.098047
H  -4.818646  -0.327535   0.052156
H  -3.920911   1.231747   0.011502
H  -2.711415  -1.516431   0.074325
H  -1.171678   1.101442  -0.082794
H  -0.417541  -1.781463   0.138545
H   0.805282  -0.352430   0.251374

