%chk=/home/boittier/MDCM/nms_sampling/butadiene_geom.xyz.dir/butadiene_1060.chk
%nproc=8
%mem=16000MB
#p B2PLYPD3/Def2QZVP 

butadiene

0 1
C  -3.848021   0.231624   0.027124
C  -2.723240  -0.501775   0.031614
C  -1.389886   0.075932   0.009428
C  -0.252136  -0.655896   0.023790
H  -4.795760  -0.291107   0.042658
H  -3.901481   1.276274  -0.020159
H  -2.775979  -1.590764   0.059913
H  -1.273356   1.192688  -0.079743
H  -0.273700  -1.745304   0.065612
H   0.774470  -0.238817   0.163654
