%chk=/home/boittier/MDCM/nms_sampling/butadiene_geom.xyz.dir/butadiene_626.chk
%nproc=8
%mem=16000MB
#p B2PLYPD3/Def2QZVP 

butadiene

0 1
C  -3.842971   0.232467   0.005630
C  -2.723723  -0.504247   0.055121
C  -1.381599   0.055741   0.020400
C  -0.257529  -0.650086   0.027114
H  -4.848936  -0.225280   0.023841
H  -3.800614   1.315812  -0.065722
H  -2.770624  -1.594080   0.097683
H  -1.354118   1.137314   0.031943
H  -0.256819  -1.717389  -0.031945
H   0.686314  -0.146714  -0.002847
