%chk=/home/boittier/MDCM/nms_sampling/butadiene_geom.xyz.dir/butadiene_2442.chk
%nproc=8
%mem=16000MB
#p B2PLYPD3/Def2QZVP 

butadiene

0 1
C  -3.802664   0.265517   0.073414
C  -2.724350  -0.564856  -0.062888
C  -1.397470   0.045441  -0.012719
C  -0.273814  -0.632203   0.061228
H  -4.774876  -0.185670   0.184089
H  -3.848446   1.422555   0.079543
H  -2.796932  -1.584104   0.116962
H  -1.409373   1.153527  -0.145741
H  -0.244305  -1.724185   0.243179
H   0.657073  -0.102829   0.145967

