%chk=/home/boittier/MDCM/nms_sampling/butadiene_geom.xyz.dir/butadiene_575.chk
%nproc=8
%mem=16000MB
#p B2PLYPD3/Def2QZVP 

butadiene

0 1
C  -3.830900   0.227677   0.036787
C  -2.717250  -0.512214   0.017711
C  -1.392290   0.059628   0.012163
C  -0.265208  -0.648108   0.039855
H  -4.838093  -0.195475  -0.003496
H  -3.779663   1.338332   0.002989
H  -2.823959  -1.579667   0.029950
H  -1.319559   1.153514  -0.103861
H  -0.271350  -1.727799   0.106082
H   0.686349  -0.137791   0.004902
