%chk=/home/boittier/MDCM/nms_sampling/butadiene_geom.xyz.dir/butadiene_715.chk
%nproc=8
%mem=16000MB
#p B2PLYPD3/Def2QZVP 

butadiene

0 1
C  -3.834264   0.236378   0.040243
C  -2.727913  -0.505051   0.018404
C  -1.395353   0.047734  -0.006633
C  -0.253866  -0.640403   0.042661
H  -4.819299  -0.226317   0.009746
H  -3.817108   1.319636   0.053088
H  -2.789254  -1.587868   0.005320
H  -1.337513   1.119478  -0.114380
H  -0.217688  -1.739458   0.129430
H   0.712253  -0.168606   0.093946

