%chk=/home/boittier/MDCM/nms_sampling/butadiene_geom.xyz.dir/butadiene_1971.chk
%nproc=8
%mem=16000MB
#p B2PLYPD3/Def2QZVP 

butadiene

0 1
C  -3.844157   0.189528   0.086745
C  -2.682939  -0.466238  -0.031737
C  -1.391086   0.114245  -0.071466
C  -0.288163  -0.666022   0.071289
H  -4.761614  -0.276036   0.097043
H  -3.859741   1.281799   0.021893
H  -2.777885  -1.633784   0.107488
H  -1.333873   1.203571  -0.003460
H  -0.493071  -1.782409   0.139961
H   0.875640  -0.427423   0.338230
