%chk=/home/boittier/MDCM/nms_sampling/butadiene_geom.xyz.dir/butadiene_320.chk
%nproc=8
%mem=16000MB
#p B2PLYPD3/Def2QZVP 

butadiene

0 1
C  -3.831995   0.227447  -0.001574
C  -2.725958  -0.517183   0.054046
C  -1.390405   0.071175   0.035035
C  -0.263706  -0.647730   0.005414
H  -4.847461  -0.180519   0.050424
H  -3.747178   1.316769  -0.083875
H  -2.778176  -1.596233   0.141266
H  -1.330082   1.170000   0.070665
H  -0.253483  -1.733174   0.032166
H   0.691325  -0.197212   0.042156

