%chk=/home/boittier/MDCM/nms_sampling/butadiene_geom.xyz.dir/butadiene_1520.chk
%nproc=8
%mem=16000MB
#p B2PLYPD3/Def2QZVP 

butadiene

0 1
C  -3.831833   0.207822   0.065255
C  -2.719069  -0.502451  -0.025483
C  -1.389805   0.111562  -0.008547
C  -0.273047  -0.675161   0.062651
H  -4.812859  -0.229521   0.031869
H  -3.772265   1.293292   0.060091
H  -2.762127  -1.536976   0.025910
H  -1.333992   1.194529  -0.144664
H  -0.304254  -1.747410   0.199369
H   0.734757  -0.261659   0.006120

