%chk=/home/boittier/MDCM/nms_sampling/butadiene_geom.xyz.dir/butadiene_1093.chk
%nproc=8
%mem=16000MB
#p B2PLYPD3/Def2QZVP 

butadiene

0 1
C  -3.841872   0.241060  -0.012911
C  -2.738882  -0.504860   0.061663
C  -1.383798   0.025035   0.074299
C  -0.247155  -0.628096  -0.017147
H  -4.781732  -0.248907  -0.064523
H  -3.759759   1.320365  -0.053630
H  -2.855988  -1.579703   0.147096
H  -1.369192   1.121212   0.024526
H  -0.234781  -1.719077   0.124990
H   0.738578  -0.121625  -0.102356

