%chk=/home/boittier/MDCM/nms_sampling/butadiene_geom.xyz.dir/butadiene_1070.chk
%nproc=8
%mem=16000MB
#p B2PLYPD3/Def2QZVP 

butadiene

0 1
C  -3.849476   0.204932   0.022854
C  -2.710210  -0.472287   0.006109
C  -1.383198   0.084727   0.004223
C  -0.273613  -0.673049   0.048258
H  -4.786814  -0.273422   0.115348
H  -3.889493   1.270308   0.132919
H  -2.768132  -1.549505   0.056200
H  -1.167618   1.157565  -0.100828
H  -0.304369  -1.753011   0.141576
H   0.692098  -0.174246   0.000960
