%chk=/home/boittier/MDCM/nms_sampling/butadiene_geom.xyz.dir/butadiene_2241.chk
%nproc=8
%mem=16000MB
#p B2PLYPD3/Def2QZVP 

butadiene

0 1
C  -3.814514   0.213667   0.077901
C  -2.690923  -0.487311  -0.002497
C  -1.386581   0.089750  -0.097466
C  -0.316455  -0.674232   0.128379
H  -4.802670  -0.303238   0.147288
H  -3.677851   1.273119   0.111315
H  -2.802587  -1.560542  -0.231238
H  -1.298118   1.197280  -0.160731
H  -0.362358  -1.821059   0.031148
H   0.604888  -0.092345   0.102829
