%chk=/home/boittier/MDCM/nms_sampling/butadiene_geom.xyz.dir/butadiene_143.chk
%nproc=8
%mem=16000MB
#p B2PLYPD3/Def2QZVP 

butadiene

0 1
C  -3.827228   0.234763   0.033007
C  -2.719160  -0.515329   0.026707
C  -1.396606   0.060788  -0.010685
C  -0.267580  -0.641193   0.045228
H  -4.786742  -0.223298   0.033862
H  -3.761971   1.323644   0.070811
H  -2.848399  -1.601568  -0.042372
H  -1.337324   1.117761  -0.089344
H  -0.269165  -1.723770   0.149393
H   0.722306  -0.182660   0.055478

