%chk=/home/boittier/MDCM/nms_sampling/butadiene_geom.xyz.dir/butadiene_2011.chk
%nproc=8
%mem=16000MB
#p B2PLYPD3/Def2QZVP 

butadiene

0 1
C  -3.869174   0.184348  -0.008386
C  -2.717701  -0.479732   0.084944
C  -1.368069   0.113381   0.078056
C  -0.254301  -0.675714  -0.023794
H  -4.887847  -0.194178  -0.059510
H  -3.842923   1.276738  -0.290585
H  -2.839775  -1.593132   0.181284
H  -1.197480   1.261550   0.034672
H  -0.274258  -1.793203  -0.134145
H   0.717665  -0.250600   0.069735
