%chk=/home/boittier/MDCM/nms_sampling/butadiene_geom.xyz.dir/butadiene_760.chk
%nproc=8
%mem=16000MB
#p B2PLYPD3/Def2QZVP 

butadiene

0 1
C  -3.826013   0.223559   0.030222
C  -2.718592  -0.505731   0.011338
C  -1.387583   0.072761  -0.008875
C  -0.271889  -0.654675   0.052367
H  -4.824677  -0.220248   0.161944
H  -3.770503   1.317546   0.027197
H  -2.807265  -1.603777   0.010746
H  -1.332001   1.168031  -0.047372
H  -0.295939  -1.739636   0.096313
H   0.661151  -0.169127   0.062797

