%chk=/home/boittier/MDCM/nms_sampling/butadiene_geom.xyz.dir/butadiene_724.chk
%nproc=8
%mem=16000MB
#p B2PLYPD3/Def2QZVP 

butadiene

0 1
C  -3.840820   0.222322   0.000746
C  -2.714321  -0.502013   0.066385
C  -1.383449   0.078040   0.024568
C  -0.269144  -0.653423   0.025061
H  -4.819133  -0.261286  -0.021530
H  -3.820915   1.298362  -0.030838
H  -2.806722  -1.579746   0.037347
H  -1.296849   1.174389   0.000796
H  -0.311810  -1.751523   0.003308
H   0.732549  -0.226606  -0.057907
