%chk=/home/boittier/MDCM/nms_sampling/butadiene_geom.xyz.dir/butadiene_461.chk
%nproc=8
%mem=16000MB
#p B2PLYPD3/Def2QZVP 

butadiene

0 1
C  -3.844565   0.207234   0.014765
C  -2.715890  -0.485357   0.025828
C  -1.381215   0.089417   0.021956
C  -0.268792  -0.667760   0.030585
H  -4.836156  -0.234325   0.078219
H  -3.809203   1.283392  -0.035960
H  -2.748430  -1.569475   0.152780
H  -1.314558   1.173875   0.015592
H  -0.322109  -1.728394   0.021093
H   0.736178  -0.242928   0.010106
