%chk=/home/boittier/MDCM/nms_sampling/butadiene_geom.xyz.dir/butadiene_1259.chk
%nproc=8
%mem=16000MB
#p B2PLYPD3/Def2QZVP 

butadiene

0 1
C  -3.814863   0.238601   0.039186
C  -2.720466  -0.519852   0.018539
C  -1.397585   0.048514  -0.013282
C  -0.276322  -0.641686   0.054725
H  -4.851675  -0.182022  -0.061828
H  -3.771032   1.314264   0.109713
H  -2.777531  -1.573672   0.066345
H  -1.301308   1.136261  -0.085331
H  -0.256802  -1.729660   0.095225
H   0.658825  -0.102605   0.003869

