%chk=/home/boittier/MDCM/nms_sampling/butadiene_geom.xyz.dir/butadiene_942.chk
%nproc=8
%mem=16000MB
#p B2PLYPD3/Def2QZVP 

butadiene

0 1
C  -3.846123   0.228938   0.036985
C  -2.725665  -0.507729   0.023849
C  -1.378100   0.054671  -0.006672
C  -0.259437  -0.643172   0.043990
H  -4.834605  -0.202164  -0.015699
H  -3.768922   1.308149   0.029776
H  -2.777888  -1.581685   0.007274
H  -1.320087   1.120256  -0.027756
H  -0.312191  -1.719786   0.152700
H   0.710548  -0.142988  -0.004050
