%chk=/home/boittier/MDCM/nms_sampling/butadiene_geom.xyz.dir/butadiene_2104.chk
%nproc=8
%mem=16000MB
#p B2PLYPD3/Def2QZVP 

butadiene

0 1
C  -3.881092   0.197547  -0.021197
C  -2.732984  -0.485060   0.037663
C  -1.327391   0.100811   0.072514
C  -0.244535  -0.666487   0.007214
H  -4.812497  -0.310169   0.004735
H  -3.894858   1.319615   0.143465
H  -2.903717  -1.547557   0.197747
H  -1.294036   1.125747  -0.092497
H  -0.393808  -1.743532   0.101501
H   0.691723  -0.215655  -0.174210

