%chk=/home/boittier/MDCM/nms_sampling/butadiene_geom.xyz.dir/butadiene_2347.chk
%nproc=8
%mem=16000MB
#p B2PLYPD3/Def2QZVP 

butadiene

0 1
C  -3.793307   0.230837   0.046129
C  -2.711840  -0.524740  -0.006981
C  -1.421703   0.086068  -0.027291
C  -0.290161  -0.671430   0.077765
H  -4.837329  -0.183626   0.064313
H  -3.784828   1.341509   0.323212
H  -2.787621  -1.554166  -0.123604
H  -1.363194   1.204674  -0.345620
H  -0.157280  -1.718677   0.212094
H   0.729933  -0.144984   0.047819
