%chk=/home/boittier/MDCM/nms_sampling/butadiene_geom.xyz.dir/butadiene_2613.chk
%nproc=8
%mem=16000MB
#p B2PLYPD3/Def2QZVP 

butadiene

0 1
C  -3.858940   0.233056   0.031193
C  -2.709123  -0.487964   0.019683
C  -1.366443   0.058357  -0.027119
C  -0.280573  -0.662785   0.068300
H  -4.854755  -0.222438   0.052359
H  -3.953160   1.228539   0.281747
H  -2.721135  -1.625666  -0.066167
H  -1.183818   1.138641  -0.308230
H  -0.163160  -1.715725   0.076241
H   0.627261  -0.112985   0.135489

