%chk=/home/boittier/MDCM/nms_sampling/butadiene_geom.xyz.dir/butadiene_1564.chk
%nproc=8
%mem=16000MB
#p B2PLYPD3/Def2QZVP 

butadiene

0 1
C  -3.825925   0.239741   0.059875
C  -2.729396  -0.521835  -0.006570
C  -1.404237   0.054179   0.002536
C  -0.247079  -0.637655   0.055089
H  -4.820146  -0.206300  -0.001952
H  -3.694185   1.341087   0.027090
H  -2.814385  -1.604692  -0.071162
H  -1.381163   1.104624  -0.182446
H  -0.288342  -1.702220   0.210192
H   0.677294  -0.171209  -0.030846

