%chk=/home/boittier/MDCM/nms_sampling/butadiene_geom.xyz.dir/butadiene_1715.chk
%nproc=8
%mem=16000MB
#p B2PLYPD3/Def2QZVP 

butadiene

0 1
C  -3.856024   0.214021  -0.022941
C  -2.726541  -0.472466   0.092387
C  -1.374782   0.072484   0.040390
C  -0.257287  -0.661958   0.004313
H  -4.771309  -0.305437  -0.026107
H  -3.852136   1.286073  -0.006724
H  -2.712862  -1.567135   0.023448
H  -1.269946   1.136748   0.011374
H  -0.325360  -1.763290   0.016626
H   0.692237  -0.204781  -0.055614

