%chk=/home/boittier/MDCM/nms_sampling/butadiene_geom.xyz.dir/butadiene_638.chk
%nproc=8
%mem=16000MB
#p B2PLYPD3/Def2QZVP 

butadiene

0 1
C  -3.860576   0.218811   0.038759
C  -2.720671  -0.484805   0.012486
C  -1.378716   0.074699  -0.005137
C  -0.255982  -0.660873   0.042043
H  -4.805548  -0.279005   0.091854
H  -3.821149   1.294562   0.001905
H  -2.725015  -1.580538   0.024034
H  -1.296486   1.160186  -0.077988
H  -0.292856  -1.761906   0.106593
H   0.717000  -0.205773   0.124606
