%chk=/home/boittier/MDCM/nms_sampling/butadiene_geom.xyz.dir/butadiene_2724.chk
%nproc=8
%mem=16000MB
#p B2PLYPD3/Def2QZVP 

butadiene

0 1
C  -3.864727   0.206981   0.074868
C  -2.720953  -0.464102  -0.062208
C  -1.343187   0.085925  -0.040062
C  -0.274038  -0.673595   0.101297
H  -4.679083  -0.373810   0.228289
H  -4.002708   1.268944   0.033881
H  -2.798851  -1.530380   0.169516
H  -1.172030   1.088041  -0.053146
H  -0.411960  -1.767883   0.031946
H   0.665054  -0.145293   0.059166
