%chk=/home/boittier/MDCM/nms_sampling/butadiene_geom.xyz.dir/butadiene_2015.chk
%nproc=8
%mem=16000MB
#p B2PLYPD3/Def2QZVP 

butadiene

0 1
C  -3.873186   0.195216   0.108939
C  -2.726564  -0.455402  -0.051066
C  -1.366081   0.112808  -0.057482
C  -0.245420  -0.682709   0.097066
H  -4.802859  -0.311179   0.252758
H  -3.988677   1.208185  -0.213505
H  -2.667871  -1.570852  -0.122476
H  -1.305651   1.185085  -0.070373
H  -0.390080  -1.733876   0.107210
H   0.870697  -0.378753   0.195224

