%chk=/home/boittier/MDCM/nms_sampling/butadiene_geom.xyz.dir/butadiene_2113.chk
%nproc=8
%mem=16000MB
#p B2PLYPD3/Def2QZVP 

butadiene

0 1
C  -3.886812   0.202983   0.069314
C  -2.741177  -0.471443  -0.038741
C  -1.374337   0.065567  -0.067055
C  -0.236378  -0.657310   0.092097
H  -4.776926  -0.268404   0.286643
H  -3.757339   1.277991   0.147931
H  -2.680467  -1.476528   0.003849
H  -1.164046   1.141784  -0.187983
H  -0.316803  -1.760348   0.078844
H   0.757010  -0.173233   0.329597
