%chk=/home/boittier/MDCM/nms_sampling/butadiene_geom.xyz.dir/butadiene_2668.chk
%nproc=8
%mem=16000MB
#p B2PLYPD3/Def2QZVP 

butadiene

0 1
C  -3.844424   0.237956   0.009836
C  -2.709027  -0.502853   0.066460
C  -1.374329   0.044087  -0.013854
C  -0.271891  -0.636571   0.005656
H  -4.841494  -0.227790   0.033710
H  -3.945000   1.280780  -0.116572
H  -2.799868  -1.595786   0.136470
H  -1.347241   1.128858   0.256978
H  -0.295873  -1.739982   0.078770
H   0.803419  -0.190695   0.193798
