%chk=/home/boittier/MDCM/nms_sampling/butadiene_geom.xyz.dir/butadiene_1361.chk
%nproc=8
%mem=16000MB
#p B2PLYPD3/Def2QZVP 

butadiene

0 1
C  -3.836760   0.219345   0.060749
C  -2.723653  -0.501307  -0.005821
C  -1.375119   0.110670  -0.016813
C  -0.266396  -0.671437   0.066055
H  -4.803763  -0.311635   0.046866
H  -3.831883   1.275887   0.028845
H  -2.770199  -1.574946  -0.100808
H  -1.363233   1.146841  -0.120431
H  -0.368504  -1.742256   0.213373
H   0.741963  -0.273331  -0.028647
