%chk=/home/boittier/MDCM/nms_sampling/butadiene_geom.xyz.dir/butadiene_2372.chk
%nproc=8
%mem=16000MB
#p B2PLYPD3/Def2QZVP 

butadiene

0 1
C  -3.819808   0.199560   0.072778
C  -2.666349  -0.455885  -0.006167
C  -1.402663   0.079044  -0.064513
C  -0.304820  -0.666958   0.115670
H  -4.748078  -0.304767  -0.044578
H  -3.972459   1.307240   0.262279
H  -2.719479  -1.581716  -0.164536
H  -1.257206   1.175826  -0.293610
H  -0.548526  -1.763645   0.111138
H   0.743460  -0.296256  -0.038185

