%chk=/home/boittier/MDCM/nms_sampling/butadiene_geom.xyz.dir/butadiene_1766.chk
%nproc=8
%mem=16000MB
#p B2PLYPD3/Def2QZVP 

butadiene

0 1
C  -3.822706   0.241058   0.036145
C  -2.721464  -0.539853   0.031985
C  -1.393282   0.070971   0.004151
C  -0.272877  -0.645513   0.038887
H  -4.888146  -0.101627  -0.076260
H  -3.759082   1.287922  -0.011003
H  -2.746459  -1.631413   0.013387
H  -1.316411   1.138548  -0.024108
H  -0.259866  -1.700610   0.131066
H   0.679364  -0.146670  -0.050020

