%chk=/home/boittier/MDCM/nms_sampling/butadiene_geom.xyz.dir/butadiene_1236.chk
%nproc=8
%mem=16000MB
#p B2PLYPD3/Def2QZVP 

butadiene

0 1
C  -3.830621   0.239481   0.063401
C  -2.729644  -0.522662   0.003656
C  -1.402310   0.068942  -0.041406
C  -0.240701  -0.643344   0.064736
H  -4.822521  -0.222669   0.017399
H  -3.727428   1.334449  -0.012871
H  -2.798222  -1.593845   0.026069
H  -1.445751   1.096790  -0.004713
H  -0.299525  -1.726501   0.103485
H   0.729030  -0.215821   0.120123
