%chk=/home/boittier/MDCM/nms_sampling/butadiene_geom.xyz.dir/butadiene_743.chk
%nproc=8
%mem=16000MB
#p B2PLYPD3/Def2QZVP 

butadiene

0 1
C  -3.831465   0.228504   0.009120
C  -2.715155  -0.503577   0.044766
C  -1.389821   0.068359   0.024267
C  -0.272267  -0.651073   0.023948
H  -4.807040  -0.249356   0.002496
H  -3.786943   1.301828  -0.051665
H  -2.829846  -1.602246   0.164833
H  -1.317003   1.138234   0.034997
H  -0.282816  -1.733860  -0.019996
H   0.712395  -0.176389   0.005414
