%chk=/home/boittier/MDCM/nms_sampling/butadiene_geom.xyz.dir/butadiene_1193.chk
%nproc=8
%mem=16000MB
#p B2PLYPD3/Def2QZVP 

butadiene

0 1
C  -3.847657   0.226938   0.036813
C  -2.737632  -0.508231  -0.004516
C  -1.375382   0.037456  -0.004552
C  -0.233124  -0.632867   0.060270
H  -4.848365  -0.175907   0.023657
H  -3.788449   1.344025   0.188516
H  -2.881626  -1.598719   0.059714
H  -1.379337   1.161132  -0.138066
H  -0.291708  -1.710954   0.172112
H   0.700147  -0.136898  -0.053891

