%chk=/home/boittier/MDCM/nms_sampling/butadiene_geom.xyz.dir/butadiene_156.chk
%nproc=8
%mem=16000MB
#p B2PLYPD3/Def2QZVP 

butadiene

0 1
C  -3.833147   0.234879   0.000583
C  -2.719507  -0.510269   0.055299
C  -1.385980   0.056649   0.043836
C  -0.267336  -0.647919   0.013912
H  -4.806516  -0.214709  -0.070590
H  -3.799885   1.297272  -0.021922
H  -2.836496  -1.595912   0.138710
H  -1.346291   1.141883  -0.003217
H  -0.252059  -1.703266   0.023815
H   0.697418  -0.151605  -0.088033

