%chk=/home/boittier/MDCM/nms_sampling/butadiene_geom.xyz.dir/butadiene_267.chk
%nproc=8
%mem=16000MB
#p B2PLYPD3/Def2QZVP 

butadiene

0 1
C  -3.838134   0.225013   0.043963
C  -2.720362  -0.495907   0.017303
C  -1.381913   0.078036  -0.010800
C  -0.267945  -0.661481   0.050101
H  -4.781014  -0.301634   0.042712
H  -3.799912   1.288799  -0.033461
H  -2.805179  -1.568378   0.038515
H  -1.328106   1.164881  -0.066535
H  -0.292702  -1.730114   0.035717
H   0.693067  -0.204547   0.106919

