%chk=/home/boittier/MDCM/nms_sampling/butadiene_geom.xyz.dir/butadiene_1105.chk
%nproc=8
%mem=16000MB
#p B2PLYPD3/Def2QZVP 

butadiene

0 1
C  -3.835179   0.200882  -0.024677
C  -2.713579  -0.477593   0.077651
C  -1.376567   0.100156   0.025526
C  -0.268835  -0.666537   0.007321
H  -4.808817  -0.285981   0.057585
H  -3.835853   1.292008  -0.002355
H  -2.772109  -1.561312   0.161233
H  -1.376617   1.150440   0.129529
H  -0.441687  -1.765535  -0.014033
H   0.738794  -0.303544   0.018083
