%chk=/home/boittier/MDCM/nms_sampling/butadiene_geom.xyz.dir/butadiene_1966.chk
%nproc=8
%mem=16000MB
#p B2PLYPD3/Def2QZVP 

butadiene

0 1
C  -3.852725   0.175495  -0.026400
C  -2.710680  -0.452656   0.092032
C  -1.377456   0.098108   0.030341
C  -0.282860  -0.669607   0.015927
H  -4.758008  -0.206322   0.066914
H  -3.777527   1.233330  -0.114758
H  -2.768246  -1.521224   0.147223
H  -1.278964   1.215714   0.113248
H  -0.356258  -1.762201  -0.186658
H   0.797144  -0.344393   0.012040
