%chk=/home/boittier/MDCM/nms_sampling/butadiene_geom.xyz.dir/butadiene_851.chk
%nproc=8
%mem=16000MB
#p B2PLYPD3/Def2QZVP 

butadiene

0 1
C  -3.854721   0.229877  -0.004914
C  -2.723662  -0.503776   0.051248
C  -1.374775   0.070945   0.044103
C  -0.253433  -0.654848   0.012468
H  -4.803853  -0.267231   0.061707
H  -3.848659   1.308000  -0.060497
H  -2.779482  -1.597659   0.135243
H  -1.327347   1.146004   0.001467
H  -0.316516  -1.730427  -0.013125
H   0.739820  -0.179931  -0.003983

