%chk=/home/boittier/MDCM/nms_sampling/butadiene_geom.xyz.dir/butadiene_270.chk
%nproc=8
%mem=16000MB
#p B2PLYPD3/Def2QZVP 

butadiene

0 1
C  -3.837178   0.232302   0.004264
C  -2.724819  -0.519387   0.060603
C  -1.386938   0.072643   0.016506
C  -0.253973  -0.650707   0.029989
H  -4.812253  -0.202607   0.004205
H  -3.800204   1.331113  -0.021676
H  -2.806514  -1.618172   0.039813
H  -1.367025   1.151105   0.004682
H  -0.301688  -1.726885   0.003700
H   0.708851  -0.175311  -0.031518
