%chk=/home/boittier/MDCM/nms_sampling/butadiene_geom.xyz.dir/butadiene_1098.chk
%nproc=8
%mem=16000MB
#p B2PLYPD3/Def2QZVP 

butadiene

0 1
C  -3.829685   0.203222   0.027238
C  -2.721672  -0.489612   0.005714
C  -1.381177   0.106013  -0.016617
C  -0.287124  -0.671212   0.054957
H  -4.794369  -0.288039   0.180936
H  -3.761390   1.290548   0.063797
H  -2.725466  -1.548307   0.065708
H  -1.238782   1.213161   0.015781
H  -0.352502  -1.784575   0.115267
H   0.693875  -0.243239   0.052592

