%chk=/home/boittier/MDCM/nms_sampling/butadiene_geom.xyz.dir/butadiene_511.chk
%nproc=8
%mem=16000MB
#p B2PLYPD3/Def2QZVP 

butadiene

0 1
C  -3.830345   0.235126   0.030981
C  -2.714411  -0.512348   0.013318
C  -1.401835   0.060783   0.003752
C  -0.267336  -0.650806   0.039175
H  -4.837877  -0.205743   0.026332
H  -3.748442   1.318575   0.084891
H  -2.776265  -1.581061   0.057954
H  -1.347053   1.132624  -0.075908
H  -0.217368  -1.704242   0.160607
H   0.687105  -0.172272   0.023074
