%chk=/home/boittier/MDCM/nms_sampling/butadiene_geom.xyz.dir/butadiene_1003.chk
%nproc=8
%mem=16000MB
#p B2PLYPD3/Def2QZVP 

butadiene

0 1
C  -3.861912   0.215854  -0.000524
C  -2.728236  -0.485675   0.071764
C  -1.370780   0.079655   0.030373
C  -0.250179  -0.658158   0.011115
H  -4.813683  -0.299779  -0.056239
H  -3.889985   1.301403   0.007035
H  -2.752396  -1.557365   0.025401
H  -1.316062   1.135199  -0.069783
H  -0.315243  -1.716522   0.036451
H   0.812403  -0.278269   0.025829
