%chk=/home/boittier/MDCM/nms_sampling/butadiene_geom.xyz.dir/butadiene_2368.chk
%nproc=8
%mem=16000MB
#p B2PLYPD3/Def2QZVP 

butadiene

0 1
C  -3.807609   0.247425   0.047375
C  -2.700599  -0.507167  -0.019714
C  -1.398166   0.056551  -0.023230
C  -0.288135  -0.646305   0.069890
H  -4.803157  -0.260824   0.143360
H  -3.867062   1.286289   0.258728
H  -2.713787  -1.604895  -0.074743
H  -1.414631   1.056766  -0.264869
H  -0.403532  -1.756661   0.245119
H   0.714689  -0.156645   0.079762

