%chk=/home/boittier/MDCM/nms_sampling/butadiene_geom.xyz.dir/butadiene_873.chk
%nproc=8
%mem=16000MB
#p B2PLYPD3/Def2QZVP 

butadiene

0 1
C  -3.848197   0.216367   0.020738
C  -2.709544  -0.486142   0.034420
C  -1.384580   0.064260   0.009007
C  -0.266768  -0.658825   0.025958
H  -4.820298  -0.233929   0.014261
H  -3.832200   1.306034   0.014377
H  -2.776302  -1.546706   0.053026
H  -1.286542   1.139011   0.005421
H  -0.281161  -1.725573   0.143594
H   0.686672  -0.177622   0.024464
