%chk=/home/boittier/MDCM/nms_sampling/butadiene_geom.xyz.dir/butadiene_1057.chk
%nproc=8
%mem=16000MB
#p B2PLYPD3/Def2QZVP 

butadiene

0 1
C  -3.837691   0.222369   0.055689
C  -2.700435  -0.497558   0.016955
C  -1.395372   0.094406  -0.033716
C  -0.285211  -0.670767   0.059009
H  -4.782824  -0.302415   0.091123
H  -3.855438   1.289197  -0.104198
H  -2.720246  -1.536907  -0.026845
H  -1.245117   1.191108  -0.002360
H  -0.279439  -1.739509   0.041916
H   0.700100  -0.271594   0.160924
