%chk=/home/boittier/MDCM/nms_sampling/butadiene_geom.xyz.dir/butadiene_2706.chk
%nproc=8
%mem=16000MB
#p B2PLYPD3/Def2QZVP 

butadiene

0 1
C  -3.793438   0.258242   0.009160
C  -2.728619  -0.520251   0.035221
C  -1.422494   0.040285   0.004440
C  -0.260924  -0.642469   0.029595
H  -4.742853  -0.280313  -0.039090
H  -3.740506   1.354369   0.252091
H  -2.770712  -1.564336   0.071697
H  -1.505978   1.056391  -0.125580
H  -0.272209  -1.651597   0.181493
H   0.713014  -0.168279   0.032266

