%chk=/home/boittier/MDCM/nms_sampling/butadiene_geom.xyz.dir/butadiene_529.chk
%nproc=8
%mem=16000MB
#p B2PLYPD3/Def2QZVP 

butadiene

0 1
C  -3.831817   0.227567   0.020437
C  -2.717113  -0.511394   0.033459
C  -1.391526   0.062881   0.002425
C  -0.266461  -0.648362   0.034332
H  -4.845606  -0.182211   0.020397
H  -3.807732   1.329521   0.057657
H  -2.758009  -1.577960   0.021281
H  -1.339250   1.149176  -0.009744
H  -0.289708  -1.729484   0.157843
H   0.710906  -0.178778  -0.008018
