%chk=/home/boittier/MDCM/nms_sampling/butadiene_geom.xyz.dir/butadiene_2784.chk
%nproc=8
%mem=16000MB
#p B2PLYPD3/Def2QZVP 

butadiene

0 1
C  -3.791061   0.247013  -0.068925
C  -2.701422  -0.538393   0.131925
C  -1.419062   0.057914   0.067288
C  -0.277793  -0.638803  -0.026052
H  -4.811781  -0.106950   0.085411
H  -3.770478   1.276914  -0.127234
H  -2.955381  -1.675363   0.242758
H  -1.414638   1.141849   0.128720
H  -0.320984  -1.688940  -0.278417
H   0.721454  -0.128366   0.106502

