%chk=/home/boittier/MDCM/nms_sampling/butadiene_geom.xyz.dir/butadiene_1069.chk
%nproc=8
%mem=16000MB
#p B2PLYPD3/Def2QZVP 

butadiene

0 1
C  -3.854986   0.228610   0.009195
C  -2.722119  -0.503497   0.033684
C  -1.386266   0.049380   0.032368
C  -0.238577  -0.651698   0.034396
H  -4.888731  -0.168752   0.124696
H  -3.821660   1.317178  -0.091441
H  -2.792701  -1.581779   0.114989
H  -1.357301   1.167205  -0.041186
H  -0.222820  -1.711783  -0.080068
H   0.688406  -0.124307   0.008298

