%chk=/home/boittier/MDCM/nms_sampling/butadiene_geom.xyz.dir/butadiene_1787.chk
%nproc=8
%mem=16000MB
#p B2PLYPD3/Def2QZVP 

butadiene

0 1
C  -3.849453   0.208323  -0.030355
C  -2.707728  -0.487914   0.078158
C  -1.381563   0.105559   0.054922
C  -0.264725  -0.673950  -0.005945
H  -4.777411  -0.234811   0.000089
H  -3.809231   1.276929  -0.003183
H  -2.741400  -1.590618   0.155888
H  -1.394373   1.159593   0.098070
H  -0.400686  -1.764094   0.051458
H   0.734510  -0.265912  -0.099111

