%chk=/home/boittier/MDCM/nms_sampling/butadiene_geom.xyz.dir/butadiene_2775.chk
%nproc=8
%mem=16000MB
#p B2PLYPD3/Def2QZVP 

butadiene

0 1
C  -3.816090   0.209386  -0.039685
C  -2.708673  -0.501465   0.124712
C  -1.378918   0.110382   0.077769
C  -0.295175  -0.695546  -0.049097
H  -4.822438  -0.206323  -0.044163
H  -3.781882   1.286412  -0.244036
H  -2.777016  -1.571699   0.169445
H  -1.359121   1.221595   0.107878
H  -0.329121  -1.701313  -0.119698
H   0.619031  -0.108736   0.152938

