%chk=/home/boittier/MDCM/nms_sampling/butadiene_geom.xyz.dir/butadiene_2614.chk
%nproc=8
%mem=16000MB
#p B2PLYPD3/Def2QZVP 

butadiene

0 1
C  -3.846141   0.205882   0.080752
C  -2.714131  -0.449177  -0.014552
C  -1.393043   0.060982  -0.059816
C  -0.259936  -0.662858   0.105228
H  -4.700484  -0.403814  -0.136344
H  -3.861607   1.335856   0.261822
H  -2.744731  -1.519709  -0.057264
H  -1.249077   1.106212  -0.265629
H  -0.426008  -1.749852   0.135669
H   0.737290  -0.208776  -0.016356

