%chk=/home/boittier/MDCM/nms_sampling/butadiene_geom.xyz.dir/butadiene_1378.chk
%nproc=8
%mem=16000MB
#p B2PLYPD3/Def2QZVP 

butadiene

0 1
C  -3.828172   0.215224   0.008594
C  -2.693529  -0.490409   0.027815
C  -1.393762   0.080906   0.029766
C  -0.279517  -0.665113   0.033011
H  -4.793754  -0.245854   0.076752
H  -3.868948   1.323583  -0.052477
H  -2.795058  -1.549580   0.212846
H  -1.394485   1.173533   0.025356
H  -0.354101  -1.773257  -0.059021
H   0.718758  -0.224753  -0.023301
