%chk=/home/boittier/MDCM/nms_sampling/butadiene_geom.xyz.dir/butadiene_2527.chk
%nproc=8
%mem=16000MB
#p B2PLYPD3/Def2QZVP 

butadiene

0 1
C  -3.869778   0.228610   0.000360
C  -2.733825  -0.516644   0.075310
C  -1.367548   0.087529  -0.002274
C  -0.240544  -0.668846   0.026495
H  -4.884304  -0.283707   0.001647
H  -3.722397   1.343932  -0.111608
H  -2.816514  -1.547485   0.150230
H  -1.355431   1.185337   0.195536
H  -0.156560  -1.757653  -0.087964
H   0.657750  -0.119680   0.040943
