%chk=/home/boittier/MDCM/nms_sampling/butadiene_geom.xyz.dir/butadiene_2268.chk
%nproc=8
%mem=16000MB
#p B2PLYPD3/Def2QZVP 

butadiene

0 1
C  -3.849249   0.229773  -0.029991
C  -2.725590  -0.481498   0.132377
C  -1.380371   0.063551   0.056408
C  -0.263990  -0.650348  -0.020373
H  -4.636923  -0.411438  -0.125481
H  -3.886408   1.331727  -0.239155
H  -2.859038  -1.642797   0.093987
H  -1.236983   1.144775   0.128146
H  -0.312014  -1.759634  -0.161544
H   0.759722  -0.196976   0.009501
