%chk=/home/boittier/MDCM/nms_sampling/butadiene_geom.xyz.dir/butadiene_2058.chk
%nproc=8
%mem=16000MB
#p B2PLYPD3/Def2QZVP 

butadiene

0 1
C  -3.875783   0.192903  -0.026403
C  -2.710165  -0.442860   0.052289
C  -1.358403   0.118538   0.062972
C  -0.263927  -0.723732  -0.003669
H  -4.766086  -0.356090  -0.042110
H  -3.968644   1.221857   0.171815
H  -2.742427  -1.492210   0.210516
H  -1.289681   1.190431  -0.034109
H  -0.259309  -1.799724   0.139422
H   0.671638  -0.074705  -0.122829
