%chk=/home/boittier/MDCM/nms_sampling/butadiene_geom.xyz.dir/butadiene_1157.chk
%nproc=8
%mem=16000MB
#p B2PLYPD3/Def2QZVP 

butadiene

0 1
C  -3.829402   0.243260   0.029769
C  -2.719150  -0.513863   0.025147
C  -1.397465   0.061338   0.001903
C  -0.252365  -0.656087   0.055832
H  -4.791333  -0.248136   0.061090
H  -3.878218   1.319613   0.007718
H  -2.857887  -1.602895  -0.019401
H  -1.375615   1.115140  -0.097392
H  -0.234192  -1.682840   0.038410
H   0.707206  -0.142704  -0.030693

