%chk=/home/boittier/MDCM/nms_sampling/butadiene_geom.xyz.dir/butadiene_825.chk
%nproc=8
%mem=16000MB
#p B2PLYPD3/Def2QZVP 

butadiene

0 1
C  -3.839677   0.227149   0.013795
C  -2.723601  -0.505471   0.045458
C  -1.381911   0.053644   0.037615
C  -0.261586  -0.646769   0.017277
H  -4.841298  -0.203752  -0.020709
H  -3.799923   1.339276  -0.055807
H  -2.836869  -1.597340   0.035093
H  -1.305115   1.127561  -0.043917
H  -0.228784  -1.712927   0.089460
H   0.677849  -0.123395  -0.050215
