%chk=/home/boittier/MDCM/nms_sampling/butadiene_geom.xyz.dir/butadiene_2795.chk
%nproc=8
%mem=16000MB
#p B2PLYPD3/Def2QZVP 

butadiene

0 1
C  -3.819863   0.241102  -0.047063
C  -2.742102  -0.533768   0.102530
C  -1.408742   0.063525   0.103086
C  -0.249662  -0.652136  -0.058642
H  -4.836714  -0.128517  -0.052176
H  -3.763975   1.372138  -0.168440
H  -2.800894  -1.580174   0.147215
H  -1.341376   1.086490   0.225672
H  -0.042892  -1.692899   0.189470
H   0.633377  -0.105572  -0.163204
