%chk=/home/boittier/MDCM/nms_sampling/butadiene_geom.xyz.dir/butadiene_1823.chk
%nproc=8
%mem=16000MB
#p B2PLYPD3/Def2QZVP 

butadiene

0 1
C  -3.835787   0.209956   0.048322
C  -2.711506  -0.486580   0.006724
C  -1.390693   0.081848  -0.033547
C  -0.267332  -0.655303   0.079637
H  -4.795391  -0.235919   0.002933
H  -3.821894   1.272167   0.126845
H  -2.814090  -1.545477  -0.041669
H  -1.354876   1.139578  -0.060159
H  -0.363320  -1.745317   0.154707
H   0.794232  -0.281880  -0.094653

