%chk=/home/boittier/MDCM/nms_sampling/butadiene_geom.xyz.dir/butadiene_61.chk
%nproc=8
%mem=16000MB
#p B2PLYPD3/Def2QZVP 

butadiene

0 1
C  -3.826923   0.231953   0.004036
C  -2.719991  -0.508652   0.065694
C  -1.394046   0.054272   0.025588
C  -0.274020  -0.645521   0.011506
H  -4.818179  -0.220322   0.017383
H  -3.720150   1.335353  -0.135457
H  -2.767900  -1.592869   0.092731
H  -1.333617   1.127938   0.070799
H  -0.277342  -1.712883  -0.023101
H   0.690119  -0.143345   0.056769
