%chk=/home/boittier/MDCM/nms_sampling/butadiene_geom.xyz.dir/butadiene_386.chk
%nproc=8
%mem=16000MB
#p B2PLYPD3/Def2QZVP 

butadiene

0 1
C  -3.846596   0.236885   0.013255
C  -2.727192  -0.513777   0.047480
C  -1.381651   0.062036   0.032706
C  -0.253529  -0.643097   0.021311
H  -4.807613  -0.251503  -0.010198
H  -3.784024   1.296308  -0.073751
H  -2.809434  -1.610408   0.035104
H  -1.310508   1.141545  -0.005015
H  -0.304870  -1.716011   0.074466
H   0.715219  -0.184580  -0.067996

