%chk=/home/boittier/MDCM/nms_sampling/butadiene_geom.xyz.dir/butadiene_1696.chk
%nproc=8
%mem=16000MB
#p B2PLYPD3/Def2QZVP 

butadiene

0 1
C  -3.862529   0.205477  -0.002574
C  -2.734143  -0.488418   0.054866
C  -1.360696   0.083281   0.047275
C  -0.256893  -0.665023   0.000864
H  -4.845742  -0.255898   0.110521
H  -3.790084   1.299204  -0.155419
H  -2.810362  -1.555128   0.072511
H  -1.243822   1.175924   0.051583
H  -0.274330  -1.711872   0.042048
H   0.717104  -0.176577   0.032022
