%chk=/home/boittier/MDCM/nms_sampling/butadiene_geom.xyz.dir/butadiene_236.chk
%nproc=8
%mem=16000MB
#p B2PLYPD3/Def2QZVP 

butadiene

0 1
C  -3.837130   0.229950   0.001089
C  -2.728260  -0.516140   0.048958
C  -1.385779   0.067939   0.028451
C  -0.258349  -0.646491   0.021969
H  -4.849401  -0.209477   0.064750
H  -3.778540   1.326284  -0.097239
H  -2.815752  -1.592616   0.149784
H  -1.339059   1.161117   0.097900
H  -0.221524  -1.731141  -0.018596
H   0.709051  -0.195131  -0.031144
