%chk=/home/boittier/MDCM/nms_sampling/butadiene_geom.xyz.dir/butadiene_37.chk
%nproc=8
%mem=16000MB
#p B2PLYPD3/Def2QZVP 

butadiene

0 1
C  -3.854512   0.216798   0.044046
C  -2.723608  -0.494481   0.016295
C  -1.377630   0.067757  -0.020311
C  -0.252450  -0.654361   0.051892
H  -4.832825  -0.233939   0.062518
H  -3.823123   1.311040  -0.036982
H  -2.763133  -1.549473   0.035326
H  -1.280040   1.155100   0.010849
H  -0.322770  -1.740446   0.079222
H   0.704968  -0.180664   0.086834

