%chk=/home/boittier/MDCM/nms_sampling/butadiene_geom.xyz.dir/butadiene_317.chk
%nproc=8
%mem=16000MB
#p B2PLYPD3/Def2QZVP 

butadiene

0 1
C  -3.856040   0.208834   0.016836
C  -2.717597  -0.482295   0.042299
C  -1.370493   0.078651   0.016439
C  -0.262693  -0.658270   0.031500
H  -4.839925  -0.261801   0.020596
H  -3.830045   1.302648  -0.041147
H  -2.748903  -1.572123   0.088077
H  -1.284897   1.148116  -0.038691
H  -0.353890  -1.764096  -0.017611
H   0.716717  -0.218450   0.044953

