%chk=/home/boittier/MDCM/nms_sampling/butadiene_geom.xyz.dir/butadiene_716.chk
%nproc=8
%mem=16000MB
#p B2PLYPD3/Def2QZVP 

butadiene

0 1
C  -3.837823   0.216117   0.014880
C  -2.704909  -0.485988   0.045361
C  -1.383692   0.080195   0.012626
C  -0.278621  -0.664688   0.024880
H  -4.810098  -0.235263   0.043881
H  -3.836266   1.280046  -0.091136
H  -2.769342  -1.584102   0.099135
H  -1.340004   1.150676   0.070779
H  -0.294082  -1.747273   0.022026
H   0.683206  -0.218050   0.042582
