%chk=/home/boittier/MDCM/nms_sampling/butadiene_geom.xyz.dir/butadiene_2509.chk
%nproc=8
%mem=16000MB
#p B2PLYPD3/Def2QZVP 

butadiene

0 1
C  -3.872222   0.245367   0.006082
C  -2.763577  -0.541037   0.043125
C  -1.367270   0.049772   0.037181
C  -0.223455  -0.630720   0.030042
H  -4.837356  -0.191713   0.084281
H  -3.730629   1.400149  -0.174223
H  -2.706688  -1.583874   0.261975
H  -1.283143   1.076034  -0.003830
H  -0.198193  -1.669530  -0.265408
H   0.690750  -0.142690   0.085693

