%chk=/home/boittier/MDCM/nms_sampling/butadiene_geom.xyz.dir/butadiene_1323.chk
%nproc=8
%mem=16000MB
#p B2PLYPD3/Def2QZVP 

butadiene

0 1
C  -3.853787   0.209222  -0.015988
C  -2.740548  -0.482085   0.084567
C  -1.377003   0.065176   0.047844
C  -0.243749  -0.656806   0.005868
H  -4.814455  -0.215064  -0.147216
H  -3.761268   1.293820  -0.025102
H  -2.809580  -1.580824   0.175919
H  -1.302853   1.151069   0.049581
H  -0.255313  -1.714324  -0.050696
H   0.709935  -0.163720  -0.117158
