%chk=/home/boittier/MDCM/nms_sampling/butadiene_geom.xyz.dir/butadiene_313.chk
%nproc=8
%mem=16000MB
#p B2PLYPD3/Def2QZVP 

butadiene

0 1
C  -3.843342   0.222678   0.025579
C  -2.719035  -0.485585   0.015129
C  -1.384984   0.065128   0.004934
C  -0.259082  -0.656540   0.039804
H  -4.801833  -0.279241   0.112171
H  -3.849540   1.312398   0.007053
H  -2.784746  -1.581886   0.074483
H  -1.356264   1.150186  -0.015006
H  -0.260259  -1.735943   0.098720
H   0.716684  -0.219567   0.040729
