%chk=/home/boittier/MDCM/nms_sampling/butadiene_geom.xyz.dir/butadiene_1130.chk
%nproc=8
%mem=16000MB
#p B2PLYPD3/Def2QZVP 

butadiene

0 1
C  -3.830592   0.244227   0.053165
C  -2.725346  -0.539688   0.000638
C  -1.398776   0.060857  -0.026527
C  -0.262375  -0.634355   0.071222
H  -4.835275  -0.191177  -0.014989
H  -3.742605   1.374503   0.106064
H  -2.791871  -1.623542   0.046407
H  -1.325883   1.127696  -0.114253
H  -0.248915  -1.705523   0.084356
H   0.754803  -0.183342   0.023906
