%chk=/home/boittier/MDCM/nms_sampling/butadiene_geom.xyz.dir/butadiene_1612.chk
%nproc=8
%mem=16000MB
#p B2PLYPD3/Def2QZVP 

butadiene

0 1
C  -3.828086   0.208139  -0.021627
C  -2.689793  -0.475376   0.068832
C  -1.385428   0.093613   0.062192
C  -0.294642  -0.676324  -0.000885
H  -4.825808  -0.286835   0.012785
H  -3.887724   1.292000  -0.004635
H  -2.745229  -1.545439   0.102028
H  -1.393421   1.175567  -0.030719
H  -0.344485  -1.763803   0.032441
H   0.741131  -0.268131  -0.074927
