%chk=/home/boittier/MDCM/nms_sampling/butadiene_geom.xyz.dir/butadiene_23.chk
%nproc=8
%mem=16000MB
#p B2PLYPD3/Def2QZVP 

butadiene

0 1
C  -3.853791   0.227308   0.000652
C  -2.719517  -0.505729   0.066960
C  -1.378344   0.063054   0.025822
C  -0.256592  -0.653031   0.014782
H  -4.856691  -0.207369   0.011122
H  -3.835273   1.309973  -0.092754
H  -2.777767  -1.589115   0.078450
H  -1.307944   1.170504   0.047572
H  -0.251437  -1.715125  -0.014887
H   0.712121  -0.168832   0.024705
