%chk=/home/boittier/MDCM/nms_sampling/butadiene_geom.xyz.dir/butadiene_1781.chk
%nproc=8
%mem=16000MB
#p B2PLYPD3/Def2QZVP 

butadiene

0 1
C  -3.845559   0.212797  -0.009711
C  -2.730139  -0.461186   0.078444
C  -1.378099   0.061423   0.066349
C  -0.256406  -0.659316  -0.006129
H  -4.724613  -0.368433  -0.098359
H  -3.892297   1.312160  -0.135765
H  -2.746924  -1.564488   0.069702
H  -1.292461   1.161165   0.060744
H  -0.355798  -1.745722   0.062165
H   0.729095  -0.227359  -0.168226

