%chk=/home/boittier/MDCM/nms_sampling/butadiene_geom.xyz.dir/butadiene_2193.chk
%nproc=8
%mem=16000MB
#p B2PLYPD3/Def2QZVP 

butadiene

0 1
C  -3.872096   0.265253  -0.025030
C  -2.752095  -0.541732   0.066043
C  -1.391833   0.022746   0.112206
C  -0.202307  -0.617339  -0.043334
H  -4.829254  -0.209760   0.028165
H  -3.755905   1.395156  -0.141937
H  -2.762862  -1.592904   0.126825
H  -1.390184   1.035398  -0.070270
H  -0.165003  -1.661077   0.093687
H   0.745156  -0.156642  -0.012531
