%chk=/home/boittier/MDCM/nms_sampling/butadiene_geom.xyz.dir/butadiene_2362.chk
%nproc=8
%mem=16000MB
#p B2PLYPD3/Def2QZVP 

butadiene

0 1
C  -3.842473   0.264710  -0.022905
C  -2.741885  -0.514532   0.087890
C  -1.407583   0.018485   0.056174
C  -0.219266  -0.626960  -0.038905
H  -4.776930  -0.309323   0.053153
H  -3.791193   1.387495  -0.214044
H  -2.738820  -1.630656   0.260271
H  -1.414264   1.090392   0.142156
H  -0.203029  -1.727663  -0.083221
H   0.677000  -0.139386   0.268898

