%chk=/home/boittier/MDCM/nms_sampling/butadiene_geom.xyz.dir/butadiene_1083.chk
%nproc=8
%mem=16000MB
#p B2PLYPD3/Def2QZVP 

butadiene

0 1
C  -3.818220   0.248056  -0.027614
C  -2.718942  -0.523296   0.075185
C  -1.396245   0.044888   0.067919
C  -0.265766  -0.637016  -0.000049
H  -4.788632  -0.232735   0.004519
H  -3.803048   1.301638   0.007526
H  -2.854053  -1.617918   0.079188
H  -1.328030   1.160144  -0.045431
H  -0.330573  -1.743416   0.025520
H   0.680842  -0.095579  -0.125814

