%chk=/home/boittier/MDCM/nms_sampling/butadiene_geom.xyz.dir/butadiene_1335.chk
%nproc=8
%mem=16000MB
#p B2PLYPD3/Def2QZVP 

butadiene

0 1
C  -3.847551   0.220234   0.051442
C  -2.722929  -0.487354  -0.015034
C  -1.395879   0.049521  -0.010788
C  -0.259325  -0.649373   0.050809
H  -4.782324  -0.212130   0.201202
H  -3.797192   1.286013  -0.005337
H  -2.765677  -1.552800   0.011746
H  -1.217130   1.162115  -0.116943
H  -0.236775  -1.726216   0.136761
H   0.702046  -0.157893   0.184159
