%chk=/home/boittier/MDCM/nms_sampling/butadiene_geom.xyz.dir/butadiene_2441.chk
%nproc=8
%mem=16000MB
#p B2PLYPD3/Def2QZVP 

butadiene

0 1
C  -3.849878   0.258183   0.017226
C  -2.747574  -0.520037   0.011926
C  -1.388733   0.022622   0.043815
C  -0.245667  -0.650019   0.047492
H  -4.754890  -0.205187   0.150711
H  -3.652750   1.302365  -0.109748
H  -2.842921  -1.597800   0.141840
H  -1.365775   1.150761  -0.095766
H  -0.010419  -1.668707  -0.118149
H   0.605555   0.052356  -0.069623
