%chk=/home/boittier/MDCM/nms_sampling/butadiene_geom.xyz.dir/butadiene_248.chk
%nproc=8
%mem=16000MB
#p B2PLYPD3/Def2QZVP 

butadiene

0 1
C  -3.850736   0.223140  -0.000475
C  -2.716066  -0.483929   0.055585
C  -1.380519   0.071936   0.032997
C  -0.260216  -0.664277   0.023019
H  -4.776456  -0.305021  -0.006159
H  -3.864312   1.299036  -0.022791
H  -2.778316  -1.584703   0.074186
H  -1.345933   1.156818   0.025887
H  -0.298184  -1.738728   0.045022
H   0.736142  -0.193429  -0.110854

