%chk=/home/boittier/MDCM/nms_sampling/butadiene_geom.xyz.dir/butadiene_73.chk
%nproc=8
%mem=16000MB
#p B2PLYPD3/Def2QZVP 

butadiene

0 1
C  -3.835845   0.227309   0.032095
C  -2.716055  -0.503896   0.007618
C  -1.389832   0.061989   0.002729
C  -0.270224  -0.651952   0.041561
H  -4.820388  -0.245024   0.079720
H  -3.745254   1.324023   0.051227
H  -2.789668  -1.570270   0.060458
H  -1.320577   1.151812  -0.050567
H  -0.288138  -1.729791   0.152539
H   0.695393  -0.148556   0.030219

