%chk=/home/boittier/MDCM/nms_sampling/butadiene_geom.xyz.dir/butadiene_2642.chk
%nproc=8
%mem=16000MB
#p B2PLYPD3/Def2QZVP 

butadiene

0 1
C  -3.891654   0.201315  -0.044001
C  -2.729903  -0.467334   0.099613
C  -1.333736   0.102071   0.058887
C  -0.248590  -0.674904  -0.010331
H  -4.769971  -0.392274   0.085896
H  -3.966275   1.254162  -0.071724
H  -2.784679  -1.626432   0.168577
H  -1.171834   1.218027   0.026802
H  -0.487289  -1.763436  -0.162757
H   0.795719  -0.210919   0.079174
