%chk=/home/boittier/MDCM/nms_sampling/butadiene_geom.xyz.dir/butadiene_1467.chk
%nproc=8
%mem=16000MB
#p B2PLYPD3/Def2QZVP 

butadiene

0 1
C  -3.849907   0.215441  -0.001856
C  -2.731587  -0.500371   0.047549
C  -1.370776   0.070673   0.053696
C  -0.249375  -0.646461   0.001493
H  -4.804762  -0.236150  -0.022169
H  -3.863956   1.321027  -0.044357
H  -2.871091  -1.600590   0.162493
H  -1.289678   1.192672   0.030297
H  -0.318151  -1.737722   0.084131
H   0.752457  -0.222969  -0.066998

