%chk=/home/boittier/MDCM/nms_sampling/butadiene_geom.xyz.dir/butadiene_2304.chk
%nproc=8
%mem=16000MB
#p B2PLYPD3/Def2QZVP 

butadiene

0 1
C  -3.816273   0.240367  -0.011583
C  -2.739700  -0.543354   0.117098
C  -1.389091   0.039569   0.066579
C  -0.256524  -0.605305  -0.017505
H  -4.849883  -0.169701  -0.274290
H  -3.579410   1.379272  -0.166678
H  -2.893936  -1.603070   0.026566
H  -1.467869   1.146795   0.020475
H  -0.315131  -1.739383  -0.013556
H   0.726867  -0.231226  -0.127532
