%chk=/home/boittier/MDCM/nms_sampling/butadiene_geom.xyz.dir/butadiene_1885.chk
%nproc=8
%mem=16000MB
#p B2PLYPD3/Def2QZVP 

butadiene

0 1
C  -3.835515   0.200339  -0.002765
C  -2.712598  -0.490348   0.044120
C  -1.379233   0.099161   0.045381
C  -0.275595  -0.661021   0.014565
H  -4.843378  -0.212122   0.046013
H  -3.820875   1.282548  -0.086727
H  -2.809586  -1.570270   0.237367
H  -1.273600   1.161521   0.045769
H  -0.366745  -1.784821  -0.072473
H   0.719634  -0.252297  -0.007595
