%chk=/home/boittier/MDCM/nms_sampling/butadiene_geom.xyz.dir/butadiene_554.chk
%nproc=8
%mem=16000MB
#p B2PLYPD3/Def2QZVP 

butadiene

0 1
C  -3.849821   0.211429   0.026336
C  -2.722081  -0.483240   0.023243
C  -1.375747   0.083059   0.007086
C  -0.265462  -0.665959   0.029009
H  -4.796893  -0.293693   0.049831
H  -3.813412   1.303538  -0.024975
H  -2.791316  -1.559108   0.132638
H  -1.275754   1.148320   0.007350
H  -0.284151  -1.731550   0.064454
H   0.703008  -0.206961   0.099032

