%chk=/home/boittier/MDCM/nms_sampling/butadiene_geom.xyz.dir/butadiene_1174.chk
%nproc=8
%mem=16000MB
#p B2PLYPD3/Def2QZVP 

butadiene

0 1
C  -3.832422   0.218395  -0.005656
C  -2.705109  -0.490024   0.069931
C  -1.382295   0.090700   0.054517
C  -0.282539  -0.669760   0.001409
H  -4.749899  -0.313888  -0.063726
H  -3.895276   1.292294  -0.142527
H  -2.766231  -1.595516   0.107276
H  -1.266895   1.184143   0.112998
H  -0.410247  -1.728240   0.048590
H   0.698876  -0.229658  -0.151179
