%chk=/home/boittier/MDCM/nms_sampling/butadiene_geom.xyz.dir/butadiene_0.chk
%nproc=8
%mem=16000MB
#p B2PLYPD3/Def2QZVP 

butadiene

0 1
C  -3.833830   0.233509   0.000636
C  -2.720413  -0.518544   0.037898
C  -1.385340   0.063902   0.032021
C  -0.266406  -0.646108   0.017974
H  -4.821599  -0.210321   0.089616
H  -3.747542   1.322965  -0.025696
H  -2.821078  -1.606771   0.160491
H  -1.350085   1.136210   0.034339
H  -0.308900  -1.719137   0.031304
H   0.705804  -0.143842   0.012404
