%chk=/home/boittier/MDCM/nms_sampling/butadiene_geom.xyz.dir/butadiene_1683.chk
%nproc=8
%mem=16000MB
#p B2PLYPD3/Def2QZVP 

butadiene

0 1
C  -3.828530   0.232565   0.028541
C  -2.713541  -0.506859   0.017066
C  -1.390311   0.041415  -0.001240
C  -0.273050  -0.639653   0.052305
H  -4.867773  -0.166414   0.107095
H  -3.737779   1.283194   0.056068
H  -2.815420  -1.561305  -0.036633
H  -1.347564   1.113632  -0.089779
H  -0.255550  -1.714212   0.127744
H   0.668461  -0.119250  -0.013527
