%chk=/home/boittier/MDCM/nms_sampling/butadiene_geom.xyz.dir/butadiene_1284.chk
%nproc=8
%mem=16000MB
#p B2PLYPD3/Def2QZVP 

butadiene

0 1
C  -3.831012   0.230993   0.050380
C  -2.708661  -0.511197  -0.016689
C  -1.390415   0.094961  -0.006278
C  -0.278560  -0.662772   0.050857
H  -4.764140  -0.305934   0.165753
H  -3.816516   1.319705   0.017220
H  -2.752955  -1.576933   0.045866
H  -1.330141   1.142904  -0.120985
H  -0.325754  -1.745494   0.134593
H   0.683778  -0.259523   0.147561
