%chk=/home/boittier/MDCM/nms_sampling/butadiene_geom.xyz.dir/butadiene_2205.chk
%nproc=8
%mem=16000MB
#p B2PLYPD3/Def2QZVP 

butadiene

0 1
C  -3.833881   0.228768  -0.030005
C  -2.694005  -0.506823   0.068331
C  -1.384137   0.106282   0.045762
C  -0.288997  -0.683424   0.009599
H  -4.727286  -0.254659   0.289129
H  -3.853761   1.291296  -0.166434
H  -2.769749  -1.612807   0.076056
H  -1.404736   1.141507   0.118122
H  -0.343507  -1.749660  -0.077365
H   0.675287  -0.165287   0.018337

