%chk=/home/boittier/MDCM/nms_sampling/butadiene_geom.xyz.dir/butadiene_458.chk
%nproc=8
%mem=16000MB
#p B2PLYPD3/Def2QZVP 

butadiene

0 1
C  -3.846780   0.234463   0.010902
C  -2.725640  -0.516650   0.044509
C  -1.384750   0.062991   0.026671
C  -0.252338  -0.648315   0.017346
H  -4.839921  -0.213868   0.023762
H  -3.766549   1.328713  -0.082963
H  -2.789699  -1.575429   0.105867
H  -1.347229   1.133363   0.063268
H  -0.232598  -1.722669   0.062400
H   0.679638  -0.162772  -0.009694

