%chk=/home/boittier/MDCM/nms_sampling/butadiene_geom.xyz.dir/butadiene_1733.chk
%nproc=8
%mem=16000MB
#p B2PLYPD3/Def2QZVP 

butadiene

0 1
C  -3.826017   0.229920   0.036301
C  -2.715609  -0.510756   0.004691
C  -1.407844   0.061468  -0.007452
C  -0.264030  -0.633805   0.049782
H  -4.796536  -0.187281   0.064282
H  -3.755190   1.294712   0.105900
H  -2.785413  -1.615658  -0.029673
H  -1.310067   1.129839  -0.035647
H  -0.337342  -1.733640   0.270175
H   0.743322  -0.262575  -0.063817

