%chk=/home/boittier/MDCM/nms_sampling/butadiene_geom.xyz.dir/butadiene_138.chk
%nproc=8
%mem=16000MB
#p B2PLYPD3/Def2QZVP 

butadiene

0 1
C  -3.842132   0.219500   0.007729
C  -2.712960  -0.498615   0.050927
C  -1.379714   0.095820   0.014826
C  -0.268693  -0.665298   0.032122
H  -4.781979  -0.288110   0.051954
H  -3.819135   1.302471  -0.055054
H  -2.784152  -1.589507   0.071203
H  -1.350350   1.160573   0.031922
H  -0.353300  -1.748574  -0.011405
H   0.711316  -0.254352  -0.007188

