%chk=/home/boittier/MDCM/nms_sampling/butadiene_geom.xyz.dir/butadiene_2563.chk
%nproc=8
%mem=16000MB
#p B2PLYPD3/Def2QZVP 

butadiene

0 1
C  -3.854929   0.249687   0.069856
C  -2.722839  -0.518141  -0.052492
C  -1.372452   0.027181  -0.005951
C  -0.235785  -0.637000   0.045811
H  -4.748020  -0.242342   0.076753
H  -3.837647   1.339046   0.145276
H  -2.899696  -1.590180   0.091930
H  -1.383471   1.137307  -0.150642
H  -0.313806  -1.673661   0.362376
H   0.598585  -0.084857   0.104601
