%chk=/home/boittier/MDCM/nms_sampling/butadiene_geom.xyz.dir/butadiene_2840.chk
%nproc=8
%mem=16000MB
#p B2PLYPD3/Def2QZVP 

butadiene

0 1
C  -3.821042   0.203240   0.071283
C  -2.679871  -0.472434  -0.046190
C  -1.398703   0.093600  -0.084461
C  -0.317904  -0.684893   0.096315
H  -4.810407  -0.154024   0.350722
H  -3.911528   1.266582   0.104600
H  -2.575265  -1.564317  -0.029563
H  -1.257028   1.127665   0.035364
H  -0.343189  -1.750645   0.233675
H   0.674256  -0.195462   0.210904
