%chk=/home/boittier/MDCM/nms_sampling/butadiene_geom.xyz.dir/butadiene_2747.chk
%nproc=8
%mem=16000MB
#p B2PLYPD3/Def2QZVP 

butadiene

0 1
C  -3.870672   0.161588   0.044311
C  -2.736065  -0.439120  -0.032614
C  -1.369694   0.099556  -0.049421
C  -0.251935  -0.671605   0.091290
H  -4.867147  -0.261312   0.455047
H  -3.811346   1.328714   0.075930
H  -2.758111  -1.513339  -0.037740
H  -1.161937   1.159001  -0.057946
H  -0.264237  -1.763500   0.095129
H   0.790632  -0.312529   0.169409

