%chk=/home/boittier/MDCM/nms_sampling/butadiene_geom.xyz.dir/butadiene_1614.chk
%nproc=8
%mem=16000MB
#p B2PLYPD3/Def2QZVP 

butadiene

0 1
C  -3.864932   0.202907   0.021354
C  -2.707507  -0.465132   0.030293
C  -1.379068   0.086286  -0.001790
C  -0.270506  -0.673057   0.047828
H  -4.799626  -0.280975   0.006365
H  -3.866506   1.263174   0.169490
H  -2.740726  -1.566342  -0.006248
H  -1.211804   1.154505  -0.167558
H  -0.286182  -1.730582   0.105917
H   0.748865  -0.237189   0.019352
