%chk=/home/boittier/MDCM/nms_sampling/butadiene_geom.xyz.dir/butadiene_397.chk
%nproc=8
%mem=16000MB
#p B2PLYPD3/Def2QZVP 

butadiene

0 1
C  -3.841515   0.231549   0.041839
C  -2.722336  -0.506508   0.009024
C  -1.387057   0.056147   0.006716
C  -0.258951  -0.649620   0.045021
H  -4.834401  -0.212042   0.011994
H  -3.843984   1.307921   0.008776
H  -2.795018  -1.579768   0.037357
H  -1.278792   1.144632  -0.096395
H  -0.237288  -1.738350   0.118429
H   0.693278  -0.122947   0.005763

