%chk=/home/boittier/MDCM/nms_sampling/butadiene_geom.xyz.dir/butadiene_1478.chk
%nproc=8
%mem=16000MB
#p B2PLYPD3/Def2QZVP 

butadiene

0 1
C  -3.833257   0.204136  -0.021490
C  -2.708283  -0.494009   0.075781
C  -1.377917   0.105223   0.025627
C  -0.283933  -0.666406   0.008442
H  -4.809882  -0.216845   0.074138
H  -3.885826   1.290790  -0.062855
H  -2.759299  -1.611159   0.187247
H  -1.281294   1.187695   0.157404
H  -0.410419  -1.766447  -0.061119
H   0.760107  -0.268899   0.036292

