%chk=/home/boittier/MDCM/nms_sampling/butadiene_geom.xyz.dir/butadiene_1707.chk
%nproc=8
%mem=16000MB
#p B2PLYPD3/Def2QZVP 

butadiene

0 1
C  -3.833024   0.241573  -0.018400
C  -2.716644  -0.516704   0.058057
C  -1.402777   0.057252   0.040873
C  -0.263458  -0.653162   0.010887
H  -4.792289  -0.190198   0.175742
H  -3.772200   1.333459  -0.106706
H  -2.705690  -1.580975   0.146717
H  -1.332886   1.090317   0.102018
H  -0.259452  -1.728626  -0.045337
H   0.644555  -0.096513   0.012065

