%chk=/home/boittier/MDCM/nms_sampling/butadiene_geom.xyz.dir/butadiene_651.chk
%nproc=8
%mem=16000MB
#p B2PLYPD3/Def2QZVP 

butadiene

0 1
C  -3.831545   0.219938   0.029639
C  -2.717739  -0.490183   0.021575
C  -1.388320   0.078763  -0.001168
C  -0.270864  -0.660055   0.037441
H  -4.786579  -0.293718   0.092557
H  -3.813333   1.288873  -0.001487
H  -2.781608  -1.563640   0.054994
H  -1.325171   1.163106  -0.054408
H  -0.333534  -1.763953   0.069199
H   0.726347  -0.210530   0.127912

