%chk=/home/boittier/MDCM/nms_sampling/butadiene_geom.xyz.dir/butadiene_1819.chk
%nproc=8
%mem=16000MB
#p B2PLYPD3/Def2QZVP 

butadiene

0 1
C  -3.849654   0.241971   0.028849
C  -2.731138  -0.521707   0.015610
C  -1.384641   0.066296  -0.016396
C  -0.238428  -0.646140   0.048403
H  -4.815259  -0.227409   0.069901
H  -3.851296   1.312320   0.079468
H  -2.778841  -1.633893   0.141174
H  -1.342815   1.140999  -0.016731
H  -0.313039  -1.727457   0.044383
H   0.738525  -0.172979   0.118864
