%chk=/home/boittier/MDCM/nms_sampling/butadiene_geom.xyz.dir/butadiene_2325.chk
%nproc=8
%mem=16000MB
#p B2PLYPD3/Def2QZVP 

butadiene

0 1
C  -3.867814   0.206299   0.078514
C  -2.720705  -0.442689  -0.046252
C  -1.380454   0.052490  -0.054842
C  -0.250588  -0.672172   0.117167
H  -4.751251  -0.358826   0.370336
H  -3.764405   1.286992  -0.081504
H  -2.753400  -1.525356  -0.082625
H  -1.275746   1.154892  -0.100289
H  -0.242405  -1.692446  -0.012044
H   0.611889  -0.178585   0.094327
