%chk=/home/boittier/MDCM/nms_sampling/butadiene_geom.xyz.dir/butadiene_1148.chk
%nproc=8
%mem=16000MB
#p B2PLYPD3/Def2QZVP 

butadiene

0 1
C  -3.860701   0.216745   0.032251
C  -2.719319  -0.482282   0.002410
C  -1.363724   0.084006  -0.000891
C  -0.256003  -0.664172   0.052361
H  -4.783820  -0.313067   0.039307
H  -3.928602   1.263022   0.180926
H  -2.736199  -1.532806   0.025434
H  -1.326774   1.160363  -0.140915
H  -0.385632  -1.784133   0.197656
H   0.732382  -0.242742  -0.031329
