%chk=/home/boittier/MDCM/nms_sampling/butadiene_geom.xyz.dir/butadiene_707.chk
%nproc=8
%mem=16000MB
#p B2PLYPD3/Def2QZVP 

butadiene

0 1
C  -3.831853   0.227891   0.000686
C  -2.715240  -0.504547   0.045813
C  -1.389014   0.074605   0.034086
C  -0.275526  -0.655514   0.017617
H  -4.792451  -0.271770   0.042905
H  -3.844832   1.312728  -0.064465
H  -2.771344  -1.572482   0.187827
H  -1.303922   1.169295   0.051376
H  -0.294930  -1.735202  -0.027608
H   0.738929  -0.218130   0.001687
