%chk=/home/boittier/MDCM/nms_sampling/butadiene_geom.xyz.dir/butadiene_1289.chk
%nproc=8
%mem=16000MB
#p B2PLYPD3/Def2QZVP 

butadiene

0 1
C  -3.860545   0.205868  -0.006792
C  -2.722949  -0.483853   0.065655
C  -1.375321   0.106864   0.007878
C  -0.255628  -0.677753   0.020849
H  -4.825208  -0.254751   0.130933
H  -3.857223   1.257613  -0.046199
H  -2.756730  -1.576094   0.081031
H  -1.261486   1.181581   0.063577
H  -0.261649  -1.754989  -0.041388
H   0.712587  -0.250783   0.128556
