%chk=/home/boittier/MDCM/nms_sampling/butadiene_geom.xyz.dir/butadiene_1269.chk
%nproc=8
%mem=16000MB
#p B2PLYPD3/Def2QZVP 

butadiene

0 1
C  -3.868460   0.204976  -0.018908
C  -2.717426  -0.477893   0.094538
C  -1.362886   0.097552   0.052401
C  -0.260572  -0.678720   0.005661
H  -4.767580  -0.288113  -0.120134
H  -3.862184   1.271146  -0.037114
H  -2.774046  -1.541740   0.084611
H  -1.295145   1.192678  -0.035261
H  -0.317330  -1.758554  -0.078462
H   0.699328  -0.217213  -0.087489
