%chk=/home/boittier/MDCM/nms_sampling/butadiene_geom.xyz.dir/butadiene_493.chk
%nproc=8
%mem=16000MB
#p B2PLYPD3/Def2QZVP 

butadiene

0 1
C  -3.842371   0.209970  -0.007262
C  -2.714832  -0.491234   0.073374
C  -1.380118   0.095513   0.033888
C  -0.271457  -0.667267   0.005471
H  -4.812784  -0.268279  -0.012533
H  -3.772539   1.290532  -0.034379
H  -2.784643  -1.586899   0.048308
H  -1.303954   1.176302   0.018781
H  -0.354611  -1.731002   0.053323
H   0.714319  -0.240498   0.000721

