%chk=/home/boittier/MDCM/nms_sampling/butadiene_geom.xyz.dir/butadiene_1210.chk
%nproc=8
%mem=16000MB
#p B2PLYPD3/Def2QZVP 

butadiene

0 1
C  -3.855295   0.207561   0.064455
C  -2.720377  -0.479356  -0.006181
C  -1.366550   0.080488  -0.019815
C  -0.262092  -0.663874   0.059329
H  -4.819148  -0.249815  -0.078469
H  -3.799459   1.255889   0.080642
H  -2.773445  -1.535542   0.041987
H  -1.326515   1.153205  -0.116278
H  -0.350299  -1.775862   0.174741
H   0.687848  -0.187794   0.031316
