%chk=/home/boittier/MDCM/nms_sampling/butadiene_geom.xyz.dir/butadiene_714.chk
%nproc=8
%mem=16000MB
#p B2PLYPD3/Def2QZVP 

butadiene

0 1
C  -3.834393   0.212706   0.035967
C  -2.719196  -0.491973   0.019988
C  -1.387447   0.086245  -0.002089
C  -0.273121  -0.658917   0.049942
H  -4.799316  -0.245874   0.002318
H  -3.810953   1.289901   0.064524
H  -2.768466  -1.592317   0.004171
H  -1.267586   1.172391  -0.121593
H  -0.320380  -1.750716   0.099551
H   0.722992  -0.245139   0.013468

