%chk=/home/boittier/MDCM/nms_sampling/butadiene_geom.xyz.dir/butadiene_757.chk
%nproc=8
%mem=16000MB
#p B2PLYPD3/Def2QZVP 

butadiene

0 1
C  -3.850411   0.225845  -0.002624
C  -2.735007  -0.500841   0.049426
C  -1.379409   0.053561   0.044927
C  -0.250671  -0.641867   0.010448
H  -4.839018  -0.224808  -0.005424
H  -3.748510   1.320383  -0.016411
H  -2.763983  -1.594711   0.148787
H  -1.296526   1.137056   0.003500
H  -0.268365  -1.724740   0.042167
H   0.695690  -0.169530  -0.048582

