%chk=/home/boittier/MDCM/nms_sampling/butadiene_geom.xyz.dir/butadiene_307.chk
%nproc=8
%mem=16000MB
#p B2PLYPD3/Def2QZVP 

butadiene

0 1
C  -3.829884   0.235948   0.013376
C  -2.722203  -0.523466   0.045715
C  -1.392117   0.062222   0.031400
C  -0.262536  -0.637295   0.018934
H  -4.813403  -0.206002  -0.037195
H  -3.760082   1.314347  -0.052469
H  -2.849783  -1.600218   0.067398
H  -1.338169   1.148391   0.022099
H  -0.278459  -1.715401   0.101267
H   0.713761  -0.214093  -0.078553

