%chk=/home/boittier/MDCM/nms_sampling/butadiene_geom.xyz.dir/butadiene_2118.chk
%nproc=8
%mem=16000MB
#p B2PLYPD3/Def2QZVP 

butadiene

0 1
C  -3.878355   0.216068  -0.034929
C  -2.733204  -0.492245   0.094263
C  -1.372927   0.067029   0.113069
C  -0.240654  -0.660599  -0.010298
H  -4.795701  -0.211722  -0.126601
H  -3.669774   1.341978  -0.130747
H  -2.765958  -1.593886   0.131358
H  -1.397709   1.182475  -0.091598
H  -0.197535  -1.749701  -0.133506
H   0.711579  -0.140187  -0.270947

