%chk=/home/boittier/MDCM/nms_sampling/butadiene_geom.xyz.dir/butadiene_2693.chk
%nproc=8
%mem=16000MB
#p B2PLYPD3/Def2QZVP 

butadiene

0 1
C  -3.840665   0.199184  -0.020944
C  -2.700634  -0.454074   0.051790
C  -1.388037   0.067907   0.049765
C  -0.266337  -0.671226   0.017189
H  -4.881743  -0.268077   0.127057
H  -3.861709   1.280164  -0.134342
H  -2.831892  -1.609244   0.236382
H  -1.248851   1.179026   0.221304
H  -0.316245  -1.715919  -0.046664
H   0.657075  -0.169914  -0.176395

