%chk=/home/boittier/MDCM/nms_sampling/butadiene_geom.xyz.dir/butadiene_191.chk
%nproc=8
%mem=16000MB
#p B2PLYPD3/Def2QZVP 

butadiene

0 1
C  -3.854362   0.215624   0.030269
C  -2.716358  -0.489033   0.008301
C  -1.376108   0.070226  -0.008987
C  -0.254444  -0.650964   0.049438
H  -4.827828  -0.257631   0.138669
H  -3.868217   1.292466   0.029908
H  -2.803801  -1.551612   0.063877
H  -1.302100   1.153155   0.004794
H  -0.338468  -1.749734   0.115302
H   0.736596  -0.244655   0.044566
