%chk=/home/boittier/MDCM/nms_sampling/butadiene_geom.xyz.dir/butadiene_105.chk
%nproc=8
%mem=16000MB
#p B2PLYPD3/Def2QZVP 

butadiene

0 1
C  -3.836444   0.215624   0.001241
C  -2.716223  -0.492961   0.056716
C  -1.381220   0.089863   0.025403
C  -0.266967  -0.664535   0.019502
H  -4.827753  -0.262330  -0.018015
H  -3.815547   1.297963   0.048075
H  -2.757427  -1.590223   0.060496
H  -1.380155   1.168172  -0.053365
H  -0.365922  -1.748697   0.058252
H   0.735737  -0.242330  -0.001238
