%chk=/home/boittier/MDCM/nms_sampling/butadiene_geom.xyz.dir/butadiene_1722.chk
%nproc=8
%mem=16000MB
#p B2PLYPD3/Def2QZVP 

butadiene

0 1
C  -3.860697   0.215861   0.026558
C  -2.735259  -0.494555   0.011278
C  -1.369531   0.100208   0.008141
C  -0.255941  -0.673847   0.049873
H  -4.826153  -0.295453   0.096392
H  -3.821406   1.269621   0.130075
H  -2.704772  -1.557622  -0.028130
H  -1.257551   1.203014  -0.194779
H  -0.276128  -1.779439   0.135168
H   0.727851  -0.196976   0.007172
