%chk=/home/boittier/MDCM/nms_sampling/butadiene_geom.xyz.dir/butadiene_2433.chk
%nproc=8
%mem=16000MB
#p B2PLYPD3/Def2QZVP 

butadiene

0 1
C  -3.826573   0.252231   0.044028
C  -2.712647  -0.535524   0.008588
C  -1.404613   0.055961  -0.045309
C  -0.271719  -0.624384   0.044843
H  -4.801058  -0.251785   0.143428
H  -3.676117   1.276531   0.007911
H  -2.760281  -1.550719   0.069836
H  -1.353979   1.106989   0.124852
H  -0.396129  -1.745600   0.183364
H   0.776080  -0.236969   0.215953

