%chk=/home/boittier/MDCM/nms_sampling/butadiene_geom.xyz.dir/butadiene_2567.chk
%nproc=8
%mem=16000MB
#p B2PLYPD3/Def2QZVP 

butadiene

0 1
C  -3.840577   0.214207   0.049437
C  -2.704698  -0.481195   0.008536
C  -1.391052   0.108866  -0.078682
C  -0.263323  -0.678944   0.094707
H  -4.789468  -0.387020   0.114057
H  -3.801868   1.262639   0.095249
H  -2.712415  -1.476691   0.036263
H  -1.433283   1.172824   0.104601
H  -0.455315  -1.776377   0.048759
H   0.771434  -0.325829   0.067499
