%chk=/home/boittier/MDCM/nms_sampling/butadiene_geom.xyz.dir/butadiene_2544.chk
%nproc=8
%mem=16000MB
#p B2PLYPD3/Def2QZVP 

butadiene

0 1
C  -3.857890   0.222775  -0.025528
C  -2.742190  -0.501147   0.123310
C  -1.377528   0.031548   0.049313
C  -0.236287  -0.616769  -0.013501
H  -4.899444  -0.153544  -0.061886
H  -3.712381   1.305650  -0.318574
H  -2.923331  -1.569186   0.176481
H  -1.352439   1.117308   0.194148
H  -0.113434  -1.775156  -0.260182
H   0.752832  -0.189401   0.064660

