%chk=/home/boittier/MDCM/nms_sampling/butadiene_geom.xyz.dir/butadiene_1313.chk
%nproc=8
%mem=16000MB
#p B2PLYPD3/Def2QZVP 

butadiene

0 1
C  -3.862843   0.196100   0.035678
C  -2.727525  -0.473335   0.008942
C  -1.364062   0.095319  -0.013029
C  -0.263013  -0.674153   0.043705
H  -4.792652  -0.292755   0.116587
H  -3.765923   1.297847   0.016368
H  -2.761604  -1.516147   0.037030
H  -1.302684   1.182222   0.028716
H  -0.310583  -1.737478   0.177516
H   0.724366  -0.243827   0.063537

