%chk=/home/boittier/MDCM/nms_sampling/butadiene_geom.xyz.dir/butadiene_1321.chk
%nproc=8
%mem=16000MB
#p B2PLYPD3/Def2QZVP 

butadiene

0 1
C  -3.822313   0.251137   0.000290
C  -2.702697  -0.522148   0.049691
C  -1.403273   0.046069   0.038008
C  -0.269120  -0.646687   0.003947
H  -4.789408  -0.210006   0.018370
H  -3.775586   1.319005  -0.020728
H  -2.805983  -1.599453   0.055155
H  -1.460717   1.137623   0.060955
H  -0.292749  -1.682803   0.190893
H   0.680412  -0.144737  -0.065924

