%chk=/home/boittier/MDCM/nms_sampling/butadiene_geom.xyz.dir/butadiene_1656.chk
%nproc=8
%mem=16000MB
#p B2PLYPD3/Def2QZVP 

butadiene

0 1
C  -3.842949   0.231237   0.012641
C  -2.738047  -0.513593   0.040359
C  -1.375935   0.057120   0.021596
C  -0.249992  -0.632644   0.035769
H  -4.838077  -0.243770  -0.084030
H  -3.786119   1.300847   0.069465
H  -2.916197  -1.603202   0.122181
H  -1.321401   1.155376  -0.039373
H  -0.234864  -1.726810   0.046370
H   0.770915  -0.208602  -0.109210
