%chk=/home/boittier/MDCM/nms_sampling/butadiene_geom.xyz.dir/butadiene_1279.chk
%nproc=8
%mem=16000MB
#p B2PLYPD3/Def2QZVP 

butadiene

0 1
C  -3.827526   0.236736   0.037731
C  -2.736262  -0.532386   0.016664
C  -1.394303   0.075520  -0.027038
C  -0.266127  -0.652543   0.060605
H  -4.798187  -0.186298   0.096460
H  -3.729999   1.336438   0.123465
H  -2.693174  -1.597595  -0.099823
H  -1.310285   1.191150  -0.113861
H  -0.265160  -1.716813   0.178814
H   0.691631  -0.166486   0.057668
