%chk=/home/boittier/MDCM/nms_sampling/butadiene_geom.xyz.dir/butadiene_213.chk
%nproc=8
%mem=16000MB
#p B2PLYPD3/Def2QZVP 

butadiene

0 1
C  -3.838038   0.217259   0.008644
C  -2.710214  -0.491775   0.044454
C  -1.386154   0.093702   0.018340
C  -0.276503  -0.671811   0.027639
H  -4.792294  -0.296097   0.032023
H  -3.806085   1.314811  -0.041999
H  -2.757517  -1.578284   0.160639
H  -1.337037   1.159950   0.025669
H  -0.314000  -1.752638  -0.042119
H   0.719719  -0.212498   0.039786
