%chk=/home/boittier/MDCM/nms_sampling/butadiene_geom.xyz.dir/butadiene_2629.chk
%nproc=8
%mem=16000MB
#p B2PLYPD3/Def2QZVP 

butadiene

0 1
C  -3.816995   0.217960  -0.011554
C  -2.698050  -0.489504   0.103938
C  -1.410582   0.063639   0.030541
C  -0.293837  -0.657936  -0.004306
H  -4.740997  -0.229765  -0.010913
H  -3.658060   1.348279  -0.294907
H  -2.768670  -1.552283   0.130575
H  -1.406428   1.146223   0.220111
H  -0.298664  -1.781636  -0.154034
H   0.689408  -0.148055   0.080493

