%chk=/home/boittier/MDCM/nms_sampling/butadiene_geom.xyz.dir/butadiene_1698.chk
%nproc=8
%mem=16000MB
#p B2PLYPD3/Def2QZVP 

butadiene

0 1
C  -3.870585   0.209228   0.001637
C  -2.717271  -0.486520   0.035291
C  -1.360059   0.082226   0.039687
C  -0.254471  -0.660138   0.022372
H  -4.820641  -0.303384   0.032631
H  -3.880207   1.307765  -0.030058
H  -2.810596  -1.556737   0.222056
H  -1.265130   1.186577   0.030857
H  -0.381655  -1.751448  -0.021203
H   0.764208  -0.223994  -0.054042
