%chk=/home/boittier/MDCM/nms_sampling/butadiene_geom.xyz.dir/butadiene_1272.chk
%nproc=8
%mem=16000MB
#p B2PLYPD3/Def2QZVP 

butadiene

0 1
C  -3.845442   0.246835   0.031639
C  -2.734797  -0.540311   0.026912
C  -1.375404   0.045557   0.003143
C  -0.243410  -0.628099   0.031539
H  -4.859114  -0.176312   0.051663
H  -3.862099   1.359437   0.024629
H  -2.840529  -1.600126  -0.067883
H  -1.340969   1.147681  -0.083860
H  -0.250016  -1.713999   0.204855
H   0.735287  -0.150031   0.058650
