%chk=/home/boittier/MDCM/nms_sampling/butadiene_geom.xyz.dir/butadiene_1214.chk
%nproc=8
%mem=16000MB
#p B2PLYPD3/Def2QZVP 

butadiene

0 1
C  -3.844889   0.232890  -0.009933
C  -2.736306  -0.514547   0.069898
C  -1.392423   0.046722   0.047172
C  -0.236876  -0.626780   0.012670
H  -4.824740  -0.196581  -0.065349
H  -3.763281   1.315849  -0.053082
H  -2.884345  -1.616423   0.107083
H  -1.317349   1.156934   0.065005
H  -0.239908  -1.741463   0.023211
H   0.751887  -0.199980  -0.169576

