%chk=/home/boittier/MDCM/nms_sampling/butadiene_geom.xyz.dir/butadiene_994.chk
%nproc=8
%mem=16000MB
#p B2PLYPD3/Def2QZVP 

butadiene

0 1
C  -3.852930   0.210463   0.050106
C  -2.713983  -0.486797  -0.005418
C  -1.376239   0.086482  -0.022613
C  -0.260956  -0.662982   0.074033
H  -4.794015  -0.240802   0.075538
H  -3.836018   1.279528   0.072126
H  -2.739781  -1.586434  -0.026736
H  -1.301037   1.147345  -0.060334
H  -0.431518  -1.742112   0.162916
H   0.727435  -0.225927  -0.066985

