%chk=/home/boittier/MDCM/nms_sampling/butadiene_geom.xyz.dir/butadiene_2042.chk
%nproc=8
%mem=16000MB
#p B2PLYPD3/Def2QZVP 

butadiene

0 1
C  -3.859782   0.233168   0.056256
C  -2.715864  -0.486554  -0.014961
C  -1.378784   0.025233  -0.023383
C  -0.255269  -0.653945   0.094532
H  -4.858049  -0.134505   0.053384
H  -3.833338   1.312459   0.118295
H  -2.845928  -1.642340  -0.110213
H  -1.388651   1.099867  -0.101947
H  -0.050671  -1.684806   0.212481
H   0.660413  -0.011749  -0.242712
