%chk=/home/boittier/MDCM/nms_sampling/butadiene_geom.xyz.dir/butadiene_1708.chk
%nproc=8
%mem=16000MB
#p B2PLYPD3/Def2QZVP 

butadiene

0 1
C  -3.824683   0.239589   0.035801
C  -2.731152  -0.532916   0.022834
C  -1.395442   0.066827  -0.013380
C  -0.262477  -0.638858   0.061855
H  -4.830249  -0.184300  -0.072233
H  -3.782413   1.322678   0.126628
H  -2.761407  -1.589034   0.057108
H  -1.354134   1.150774  -0.101654
H  -0.288845  -1.739295   0.058025
H   0.780665  -0.196543  -0.041215

