%chk=/home/boittier/MDCM/nms_sampling/butadiene_geom.xyz.dir/butadiene_2704.chk
%nproc=8
%mem=16000MB
#p B2PLYPD3/Def2QZVP 

butadiene

0 1
C  -3.838896   0.214927  -0.052918
C  -2.741960  -0.487662   0.105217
C  -1.381396   0.039729   0.078524
C  -0.262823  -0.645842  -0.003665
H  -4.816639  -0.226771   0.052171
H  -3.757657   1.388903  -0.010437
H  -2.947444  -1.577003  -0.031471
H  -1.218674   1.109273   0.004766
H  -0.009921  -1.690552   0.029372
H   0.647311  -0.076020  -0.250600

