%chk=/home/boittier/MDCM/nms_sampling/butadiene_geom.xyz.dir/butadiene_435.chk
%nproc=8
%mem=16000MB
#p B2PLYPD3/Def2QZVP 

butadiene

0 1
C  -3.841166   0.228681   0.035644
C  -2.718885  -0.513556   0.013642
C  -1.383989   0.061364  -0.004664
C  -0.263997  -0.642856   0.054237
H  -4.850540  -0.193452   0.036313
H  -3.743464   1.324452   0.045191
H  -2.761035  -1.584691   0.018933
H  -1.322932   1.126477  -0.046659
H  -0.321672  -1.727503   0.124745
H   0.682476  -0.174016  -0.044756
