%chk=/home/boittier/MDCM/nms_sampling/butadiene_geom.xyz.dir/butadiene_2534.chk
%nproc=8
%mem=16000MB
#p B2PLYPD3/Def2QZVP 

butadiene

0 1
C  -3.857136   0.248297  -0.008912
C  -2.727778  -0.507471   0.067460
C  -1.383338   0.016115   0.097217
C  -0.233318  -0.641479  -0.015174
H  -4.939615  -0.143885   0.002702
H  -3.703978   1.319911  -0.345403
H  -2.807981  -1.618094   0.260827
H  -1.436187   1.065508   0.004826
H  -0.121866  -1.718126  -0.241097
H   0.599032   0.050395   0.013317
