%chk=/home/boittier/MDCM/nms_sampling/butadiene_geom.xyz.dir/butadiene_1978.chk
%nproc=8
%mem=16000MB
#p B2PLYPD3/Def2QZVP 

butadiene

0 1
C  -3.825798   0.235726   0.049257
C  -2.722371  -0.539166   0.022633
C  -1.365658   0.055186  -0.050585
C  -0.267754  -0.630653   0.046303
H  -4.835302  -0.183449   0.226735
H  -3.770665   1.408504  -0.098528
H  -2.920756  -1.605443  -0.083905
H  -1.476272   1.143566   0.036660
H  -0.351347  -1.723673   0.107547
H   0.710914  -0.148986   0.349320
