%chk=/home/boittier/MDCM/nms_sampling/butadiene_geom.xyz.dir/butadiene_2736.chk
%nproc=8
%mem=16000MB
#p B2PLYPD3/Def2QZVP 

butadiene

0 1
C  -3.875450   0.213525   0.039027
C  -2.710832  -0.452513   0.019448
C  -1.357898   0.058580  -0.066499
C  -0.254893  -0.664067   0.084667
H  -4.733491  -0.446120   0.169583
H  -3.961009   1.302213   0.257082
H  -2.755506  -1.505231  -0.220162
H  -1.266136   1.091454  -0.175997
H  -0.485028  -1.699100   0.190525
H   0.774932  -0.208196   0.135513

