%chk=/home/boittier/MDCM/nms_sampling/butadiene_geom.xyz.dir/butadiene_2039.chk
%nproc=8
%mem=16000MB
#p B2PLYPD3/Def2QZVP 

butadiene

0 1
C  -3.791914   0.253987  -0.009593
C  -2.719484  -0.516497   0.084330
C  -1.419352   0.014904   0.085968
C  -0.263768  -0.626014  -0.025410
H  -4.821147  -0.134871  -0.282293
H  -3.801254   1.293777  -0.119051
H  -2.885970  -1.639712   0.219912
H  -1.514720   1.135214   0.038383
H  -0.202231  -1.699753   0.026143
H   0.748447  -0.119111  -0.158457
