%chk=/home/boittier/MDCM/nms_sampling/butadiene_geom.xyz.dir/butadiene_2432.chk
%nproc=8
%mem=16000MB
#p B2PLYPD3/Def2QZVP 

butadiene

0 1
C  -3.830230   0.232677   0.049855
C  -2.705554  -0.538287   0.021038
C  -1.393305   0.068786  -0.016315
C  -0.279287  -0.638173   0.035279
H  -4.947694  -0.005097   0.066556
H  -3.639900   1.341275  -0.080033
H  -2.720231  -1.678561  -0.014889
H  -1.463438   1.124628  -0.055203
H  -0.224283  -1.767839   0.102525
H   0.664384  -0.161616   0.233993

