%chk=/home/boittier/MDCM/nms_sampling/butadiene_geom.xyz.dir/butadiene_2471.chk
%nproc=8
%mem=16000MB
#p B2PLYPD3/Def2QZVP 

butadiene

0 1
C  -3.823109   0.248185  -0.044881
C  -2.755511  -0.556728   0.093477
C  -1.392529   0.082848   0.080716
C  -0.265969  -0.645054  -0.001410
H  -4.825893  -0.186081   0.016994
H  -3.641724   1.350381  -0.019654
H  -2.678942  -1.647775   0.066194
H  -1.268348   1.132925  -0.017554
H  -0.267640  -1.709725  -0.035321
H   0.741444  -0.106563  -0.213528
