%chk=/home/boittier/MDCM/nms_sampling/butadiene_geom.xyz.dir/butadiene_282.chk
%nproc=8
%mem=16000MB
#p B2PLYPD3/Def2QZVP 

butadiene

0 1
C  -3.818979   0.228838   0.024187
C  -2.720516  -0.514675   0.021089
C  -1.398350   0.061577   0.009096
C  -0.273899  -0.646936   0.044551
H  -4.821448  -0.189640   0.069284
H  -3.757047   1.339557   0.072067
H  -2.814778  -1.590522  -0.005708
H  -1.313513   1.149842  -0.119821
H  -0.241860  -1.725328   0.115612
H   0.680935  -0.150408  -0.008715
