%chk=/home/boittier/MDCM/nms_sampling/butadiene_geom.xyz.dir/butadiene_2874.chk
%nproc=8
%mem=16000MB
#p B2PLYPD3/Def2QZVP 

butadiene

0 1
C  -3.845780   0.226470  -0.007389
C  -2.738188  -0.473508   0.033289
C  -1.392358   0.050857   0.058538
C  -0.225217  -0.652452   0.022996
H  -4.787606  -0.345042   0.115945
H  -3.852838   1.351896  -0.148912
H  -2.824791  -1.607799   0.340949
H  -1.375209   1.123937   0.055296
H  -0.218915  -1.755326  -0.214537
H   0.673746  -0.186145  -0.036666

