%chk=/home/boittier/MDCM/nms_sampling/butadiene_geom.xyz.dir/butadiene_1278.chk
%nproc=8
%mem=16000MB
#p B2PLYPD3/Def2QZVP 

butadiene

0 1
C  -3.843427   0.209542   0.001685
C  -2.710938  -0.465738   0.032967
C  -1.380696   0.073505   0.039631
C  -0.264072  -0.664787   0.020675
H  -4.775472  -0.288676   0.072827
H  -3.906657   1.236546   0.055367
H  -2.821577  -1.532421   0.071652
H  -1.344077   1.156302  -0.075510
H  -0.332676  -1.753449   0.114491
H   0.741908  -0.244018  -0.050247

