%chk=/home/boittier/MDCM/nms_sampling/butadiene_geom.xyz.dir/butadiene_110.chk
%nproc=8
%mem=16000MB
#p B2PLYPD3/Def2QZVP 

butadiene

0 1
C  -3.841687   0.213702   0.032511
C  -2.721480  -0.499427   0.007179
C  -1.380508   0.097846   0.003961
C  -0.269098  -0.667230   0.047851
H  -4.806404  -0.262031   0.060739
H  -3.819192   1.324606   0.045481
H  -2.728033  -1.577126   0.083691
H  -1.298696   1.167776  -0.053482
H  -0.335571  -1.757055   0.105699
H   0.727399  -0.229899  -0.007479
