%chk=/home/boittier/MDCM/nms_sampling/butadiene_geom.xyz.dir/butadiene_2651.chk
%nproc=8
%mem=16000MB
#p B2PLYPD3/Def2QZVP 

butadiene

0 1
C  -3.853399   0.194524  -0.058675
C  -2.694704  -0.453116   0.094824
C  -1.375992   0.080341   0.055780
C  -0.293417  -0.667936  -0.023129
H  -4.746110  -0.356789   0.074123
H  -3.942674   1.261331  -0.010534
H  -2.722224  -1.447129   0.410424
H  -1.191374   1.183285   0.198488
H  -0.410065  -1.713179  -0.167039
H   0.812820  -0.347386   0.107736
