%chk=/home/boittier/MDCM/nms_sampling/butadiene_geom.xyz.dir/butadiene_566.chk
%nproc=8
%mem=16000MB
#p B2PLYPD3/Def2QZVP 

butadiene

0 1
C  -3.838823   0.219875   0.032462
C  -2.716929  -0.499685   0.026920
C  -1.385644   0.077944  -0.009056
C  -0.261809  -0.655443   0.040929
H  -4.810110  -0.211683   0.095700
H  -3.823306   1.289787  -0.038935
H  -2.786731  -1.583112   0.012359
H  -1.379287   1.166343  -0.016334
H  -0.328636  -1.746067   0.072607
H   0.746542  -0.236601   0.117289

