%chk=/home/boittier/MDCM/nms_sampling/butadiene_geom.xyz.dir/butadiene_621.chk
%nproc=8
%mem=16000MB
#p B2PLYPD3/Def2QZVP 

butadiene

0 1
C  -3.832567   0.224015   0.002182
C  -2.708444  -0.495887   0.057167
C  -1.394856   0.070879   0.044153
C  -0.275497  -0.652322   0.010910
H  -4.792931  -0.264172  -0.008937
H  -3.801707   1.287673  -0.072913
H  -2.790514  -1.561296   0.058071
H  -1.311057   1.144179  -0.011717
H  -0.316821  -1.740700   0.050300
H   0.737054  -0.230869  -0.053510

