%chk=/home/boittier/MDCM/nms_sampling/butadiene_geom.xyz.dir/butadiene_2320.chk
%nproc=8
%mem=16000MB
#p B2PLYPD3/Def2QZVP 

butadiene

0 1
C  -3.859649   0.210686   0.041700
C  -2.691927  -0.465383   0.014545
C  -1.382338   0.072245  -0.066291
C  -0.280268  -0.671589   0.092213
H  -4.861070  -0.263707   0.195669
H  -3.938907   1.287842   0.233585
H  -2.664153  -1.556436  -0.238211
H  -1.187454   1.140444  -0.176904
H  -0.244741  -1.763726   0.175328
H   0.640619  -0.195162   0.097851
