%chk=/home/boittier/MDCM/nms_sampling/butadiene_geom.xyz.dir/butadiene_1718.chk
%nproc=8
%mem=16000MB
#p B2PLYPD3/Def2QZVP 

butadiene

0 1
C  -3.831766   0.219029  -0.028413
C  -2.704088  -0.492843   0.077658
C  -1.390766   0.092286   0.063725
C  -0.288819  -0.665375  -0.007295
H  -4.773596  -0.315799   0.014268
H  -3.850461   1.294286  -0.027983
H  -2.760309  -1.567077   0.089999
H  -1.250085   1.150057   0.049331
H  -0.335521  -1.712742   0.073779
H   0.747685  -0.277474  -0.120548

