%chk=/home/boittier/MDCM/nms_sampling/butadiene_geom.xyz.dir/butadiene_316.chk
%nproc=8
%mem=16000MB
#p B2PLYPD3/Def2QZVP 

butadiene

0 1
C  -3.845042   0.220680   0.010204
C  -2.717864  -0.488460   0.048599
C  -1.377700   0.070460   0.012562
C  -0.267312  -0.656782   0.031958
H  -4.782775  -0.277838   0.045817
H  -3.873314   1.282058  -0.060842
H  -2.795694  -1.576297   0.105966
H  -1.275510   1.175792   0.033251
H  -0.296072  -1.755930  -0.037047
H   0.699967  -0.203454   0.029041

