%chk=/home/boittier/MDCM/nms_sampling/butadiene_geom.xyz.dir/butadiene_1027.chk
%nproc=8
%mem=16000MB
#p B2PLYPD3/Def2QZVP 

butadiene

0 1
C  -3.846892   0.222525   0.047095
C  -2.711352  -0.477536  -0.003379
C  -1.386708   0.068502  -0.015360
C  -0.255735  -0.665999   0.046247
H  -4.801437  -0.320415   0.075385
H  -3.971888   1.301956   0.065834
H  -2.764330  -1.558030   0.003846
H  -1.299705   1.132881  -0.025434
H  -0.313444  -1.721251   0.262184
H   0.745186  -0.207233   0.046926
