%chk=/home/boittier/MDCM/nms_sampling/butadiene_geom.xyz.dir/butadiene_2029.chk
%nproc=8
%mem=16000MB
#p B2PLYPD3/Def2QZVP 

butadiene

0 1
C  -3.821237   0.208816   0.065493
C  -2.718993  -0.475039  -0.011852
C  -1.390956   0.097909  -0.021805
C  -0.270665  -0.683299   0.072955
H  -4.704586  -0.341893  -0.054945
H  -3.883332   1.333556   0.079503
H  -2.732293  -1.526788  -0.050353
H  -1.468982   1.228647  -0.051746
H  -0.345831  -1.764283   0.274528
H   0.746046  -0.287215  -0.162229

