%chk=/home/boittier/MDCM/nms_sampling/butadiene_geom.xyz.dir/butadiene_1828.chk
%nproc=8
%mem=16000MB
#p B2PLYPD3/Def2QZVP 

butadiene

0 1
C  -3.836468   0.228067  -0.015969
C  -2.728857  -0.490960   0.073366
C  -1.396498   0.035483   0.053551
C  -0.255605  -0.643450   0.015985
H  -4.841766  -0.207804  -0.001427
H  -3.745173   1.296922  -0.084742
H  -2.819236  -1.563719   0.067592
H  -1.306477   1.139040   0.041992
H  -0.148383  -1.682113  -0.021812
H   0.666497  -0.149081  -0.184708

