%chk=/home/boittier/MDCM/nms_sampling/butadiene_geom.xyz.dir/butadiene_1471.chk
%nproc=8
%mem=16000MB
#p B2PLYPD3/Def2QZVP 

butadiene

0 1
C  -3.823984   0.224628  -0.000305
C  -2.703680  -0.496444   0.048164
C  -1.394394   0.049107   0.052527
C  -0.282255  -0.649537  -0.007306
H  -4.844674  -0.174388  -0.027641
H  -3.771563   1.299278  -0.048266
H  -2.806556  -1.589889   0.170535
H  -1.339682   1.135899   0.039078
H  -0.275806  -1.671604   0.114909
H   0.671368  -0.160609  -0.006885

