%chk=/home/boittier/MDCM/nms_sampling/butadiene_geom.xyz.dir/butadiene_1414.chk
%nproc=8
%mem=16000MB
#p B2PLYPD3/Def2QZVP 

butadiene

0 1
C  -3.841420   0.206121  -0.016955
C  -2.701514  -0.464029   0.068524
C  -1.390320   0.083333   0.037629
C  -0.273993  -0.668785   0.008848
H  -4.772854  -0.316987   0.090080
H  -3.848280   1.270552  -0.042798
H  -2.789882  -1.554523   0.125582
H  -1.298395   1.163584   0.009556
H  -0.322746  -1.737185  -0.061226
H   0.700403  -0.290980   0.064212
