%chk=/home/boittier/MDCM/nms_sampling/butadiene_geom.xyz.dir/butadiene_2255.chk
%nproc=8
%mem=16000MB
#p B2PLYPD3/Def2QZVP 

butadiene

0 1
C  -3.810363   0.240199   0.101087
C  -2.705983  -0.527475  -0.048057
C  -1.417446   0.051645  -0.059035
C  -0.292233  -0.632237   0.090954
H  -4.797895  -0.224159   0.231047
H  -3.672412   1.348641  -0.166516
H  -2.801267  -1.612591  -0.058284
H  -1.218474   1.215222  -0.012284
H  -0.235369  -1.719285   0.132681
H   0.648954  -0.210874   0.188362

