%chk=/home/boittier/MDCM/nms_sampling/butadiene_geom.xyz.dir/butadiene_878.chk
%nproc=8
%mem=16000MB
#p B2PLYPD3/Def2QZVP 

butadiene

0 1
C  -3.844932   0.227928  -0.002283
C  -2.722983  -0.509586   0.055320
C  -1.383509   0.056311   0.028348
C  -0.257977  -0.643355   0.017829
H  -4.858577  -0.171796  -0.001469
H  -3.787563   1.306002   0.006396
H  -2.789490  -1.589950   0.125819
H  -1.312070   1.121031   0.023763
H  -0.275965  -1.706212   0.029542
H   0.722069  -0.160757  -0.023618
