%chk=/home/boittier/MDCM/nms_sampling/butadiene_geom.xyz.dir/butadiene_1572.chk
%nproc=8
%mem=16000MB
#p B2PLYPD3/Def2QZVP 

butadiene

0 1
C  -3.859995   0.212150   0.043413
C  -2.732715  -0.477285   0.008383
C  -1.377357   0.073633  -0.051327
C  -0.247690  -0.659865   0.076990
H  -4.832139  -0.287387   0.132588
H  -3.799282   1.268669   0.054544
H  -2.754227  -1.595319   0.047789
H  -1.230068   1.175422   0.047180
H  -0.313416  -1.756873   0.048456
H   0.727937  -0.180359   0.091006

