%chk=/home/boittier/MDCM/nms_sampling/butadiene_geom.xyz.dir/butadiene_241.chk
%nproc=8
%mem=16000MB
#p B2PLYPD3/Def2QZVP 

butadiene

0 1
C  -3.840988   0.230911   0.005396
C  -2.727407  -0.508926   0.056895
C  -1.388239   0.059365   0.027865
C  -0.260834  -0.647162   0.025717
H  -4.826577  -0.229169  -0.040393
H  -3.789379   1.322585   0.000392
H  -2.795244  -1.587927   0.074191
H  -1.277308   1.139585  -0.057448
H  -0.227493  -1.717069  -0.007852
H   0.720272  -0.154393  -0.030346
