%chk=/home/boittier/MDCM/nms_sampling/butadiene_geom.xyz.dir/butadiene_329.chk
%nproc=8
%mem=16000MB
#p B2PLYPD3/Def2QZVP 

butadiene

0 1
C  -3.844510   0.220299   0.006730
C  -2.720712  -0.503010   0.047419
C  -1.385741   0.087055   0.015242
C  -0.265091  -0.664229   0.028456
H  -4.791772  -0.254509   0.071539
H  -3.796806   1.304547  -0.030938
H  -2.750404  -1.551985   0.100135
H  -1.288450   1.167596  -0.000034
H  -0.302252  -1.746333  -0.023138
H   0.710515  -0.199845   0.061082

