%chk=/home/boittier/MDCM/nms_sampling/butadiene_geom.xyz.dir/butadiene_2226.chk
%nproc=8
%mem=16000MB
#p B2PLYPD3/Def2QZVP 

butadiene

0 1
C  -3.853018   0.257670   0.111279
C  -2.732643  -0.547314  -0.080388
C  -1.389525   0.035037  -0.063309
C  -0.212397  -0.619581   0.093373
H  -4.900052  -0.121663   0.183190
H  -3.780082   1.329166  -0.046768
H  -2.887566  -1.595225   0.117732
H  -1.510535   1.120535  -0.024685
H  -0.187738  -1.684055   0.173734
H   0.709555  -0.214274   0.219995
