%chk=/home/boittier/MDCM/nms_sampling/butadiene_geom.xyz.dir/butadiene_83.chk
%nproc=8
%mem=16000MB
#p B2PLYPD3/Def2QZVP 

butadiene

0 1
C  -3.838180   0.234071  -0.007824
C  -2.717688  -0.515503   0.068081
C  -1.387909   0.063536   0.030450
C  -0.259048  -0.645437   0.010248
H  -4.834755  -0.216253   0.048086
H  -3.762925   1.320917  -0.064183
H  -2.791374  -1.600188   0.088892
H  -1.392421   1.161398   0.041822
H  -0.307036  -1.740795  -0.007592
H   0.707715  -0.189155   0.037731

