%chk=/home/boittier/MDCM/nms_sampling/butadiene_geom.xyz.dir/butadiene_2708.chk
%nproc=8
%mem=16000MB
#p B2PLYPD3/Def2QZVP 

butadiene

0 1
C  -3.888602   0.205430   0.068341
C  -2.722507  -0.466018  -0.065349
C  -1.359565   0.081145  -0.063454
C  -0.242840  -0.657050   0.100115
H  -4.727199  -0.379345   0.371315
H  -3.841475   1.300639   0.123219
H  -2.768236  -1.528638   0.084587
H  -1.323991   1.164787  -0.021425
H  -0.416131  -1.831557   0.161893
H   0.819160  -0.271758   0.162346

