%chk=/home/boittier/MDCM/nms_sampling/butadiene_geom.xyz.dir/butadiene_2804.chk
%nproc=8
%mem=16000MB
#p B2PLYPD3/Def2QZVP 

butadiene

0 1
C  -3.869376   0.197600   0.056794
C  -2.696318  -0.464857   0.018945
C  -1.354195   0.101657  -0.039396
C  -0.271680  -0.668322   0.089735
H  -4.781763  -0.346193  -0.060146
H  -3.858967   1.210086   0.151074
H  -2.789944  -1.490510  -0.129131
H  -1.345780   1.151216  -0.251255
H  -0.555744  -1.804873   0.042494
H   0.785618  -0.302771  -0.003274
