%chk=/home/boittier/MDCM/nms_sampling/butadiene_geom.xyz.dir/butadiene_436.chk
%nproc=8
%mem=16000MB
#p B2PLYPD3/Def2QZVP 

butadiene

0 1
C  -3.828285   0.230054   0.023264
C  -2.721386  -0.505007   0.031852
C  -1.388588   0.060612   0.006294
C  -0.262012  -0.647155   0.030516
H  -4.813967  -0.231365  -0.000446
H  -3.780037   1.295152   0.053477
H  -2.820969  -1.571852   0.055270
H  -1.378243   1.126423  -0.053350
H  -0.325650  -1.732541   0.120851
H   0.704924  -0.168664   0.049475
