%chk=/home/boittier/MDCM/nms_sampling/butadiene_geom.xyz.dir/butadiene_2754.chk
%nproc=8
%mem=16000MB
#p B2PLYPD3/Def2QZVP 

butadiene

0 1
C  -3.799139   0.225119   0.060241
C  -2.710284  -0.502138  -0.056082
C  -1.390934   0.095700  -0.034037
C  -0.296735  -0.669978   0.092186
H  -4.759198  -0.319429   0.391566
H  -3.778422   1.275676   0.137189
H  -2.852925  -1.564059   0.005966
H  -1.378595   1.172037  -0.269541
H  -0.365186  -1.814741   0.068007
H   0.667821  -0.137472   0.235496

