%chk=/home/boittier/MDCM/nms_sampling/butadiene_geom.xyz.dir/butadiene_396.chk
%nproc=8
%mem=16000MB
#p B2PLYPD3/Def2QZVP 

butadiene

0 1
C  -3.844680   0.208046   0.009960
C  -2.710634  -0.488139   0.053840
C  -1.381261   0.085969   0.019570
C  -0.273744  -0.664485   0.020840
H  -4.815189  -0.252711   0.027922
H  -3.768054   1.321619  -0.096675
H  -2.752492  -1.570459   0.089563
H  -1.307496   1.164473   0.046448
H  -0.360742  -1.748789  -0.003100
H   0.707675  -0.211575   0.040491

