%chk=/home/boittier/MDCM/nms_sampling/butadiene_geom.xyz.dir/butadiene_2294.chk
%nproc=8
%mem=16000MB
#p B2PLYPD3/Def2QZVP 

butadiene

0 1
C  -3.797592   0.268508   0.010746
C  -2.700598  -0.533231   0.043800
C  -1.426653  -0.002760  -0.047176
C  -0.278551  -0.599423   0.062475
H  -4.842550  -0.264704   0.228557
H  -3.765570   1.363598   0.073629
H  -2.856026  -1.575512   0.001217
H  -1.331000   1.105162   0.060291
H  -0.282180  -1.691557  -0.012720
H   0.736310  -0.185282   0.169331

