%chk=/home/boittier/MDCM/nms_sampling/butadiene_geom.xyz.dir/butadiene_1237.chk
%nproc=8
%mem=16000MB
#p B2PLYPD3/Def2QZVP 

butadiene

0 1
C  -3.824529   0.240313   0.007748
C  -2.714050  -0.520994   0.040928
C  -1.399563   0.042626   0.048823
C  -0.265623  -0.636001   0.026273
H  -4.869002  -0.160105  -0.020856
H  -3.767075   1.308316   0.000241
H  -2.812322  -1.618094   0.050531
H  -1.281362   1.132357  -0.119785
H  -0.275305  -1.675341   0.043168
H   0.641389  -0.137076  -0.127398

