%chk=/home/boittier/MDCM/nms_sampling/butadiene_geom.xyz.dir/butadiene_689.chk
%nproc=8
%mem=16000MB
#p B2PLYPD3/Def2QZVP 

butadiene

0 1
C  -3.835254   0.233740   0.031798
C  -2.718301  -0.517621   0.025279
C  -1.389310   0.063583   0.005360
C  -0.265933  -0.647330   0.045478
H  -4.852383  -0.189471  -0.004938
H  -3.740904   1.315242   0.048471
H  -2.768877  -1.600751   0.004512
H  -1.334439   1.119829  -0.123002
H  -0.302162  -1.726823   0.087639
H   0.688453  -0.133639   0.000051

