%chk=/home/boittier/MDCM/nms_sampling/butadiene_geom.xyz.dir/butadiene_2809.chk
%nproc=8
%mem=16000MB
#p B2PLYPD3/Def2QZVP 

butadiene

0 1
C  -3.854884   0.255230   0.037914
C  -2.738789  -0.534787  -0.017309
C  -1.370602  -0.001975  -0.024457
C  -0.238202  -0.599956   0.072548
H  -4.805674  -0.123889   0.052557
H  -3.750130   1.359445   0.343031
H  -2.826068  -1.636623   0.042300
H  -1.423446   1.134536  -0.175969
H  -0.298330  -1.731092   0.252393
H   0.725188  -0.092978  -0.040614
