%chk=/home/boittier/MDCM/nms_sampling/butadiene_geom.xyz.dir/butadiene_2495.chk
%nproc=8
%mem=16000MB
#p B2PLYPD3/Def2QZVP 

butadiene

0 1
C  -3.847443   0.191039   0.007777
C  -2.731189  -0.448374   0.034888
C  -1.380154   0.087393  -0.030876
C  -0.274487  -0.675925   0.053703
H  -4.747882  -0.309503   0.326574
H  -3.854531   1.254655   0.017011
H  -2.740956  -1.579640  -0.007686
H  -1.086064   1.188371   0.043530
H  -0.236870  -1.744252  -0.001218
H   0.655598  -0.223784   0.198229

