%chk=/home/boittier/MDCM/nms_sampling/butadiene_geom.xyz.dir/butadiene_2351.chk
%nproc=8
%mem=16000MB
#p B2PLYPD3/Def2QZVP 

butadiene

0 1
C  -3.843458   0.188852  -0.028528
C  -2.724199  -0.484287   0.126176
C  -1.360826   0.135142   0.076515
C  -0.286576  -0.679948  -0.037845
H  -4.799768  -0.243495  -0.304058
H  -3.744614   1.237707  -0.112409
H  -2.668951  -1.617365   0.076875
H  -1.212933   1.199333   0.124073
H  -0.498770  -1.796104   0.102211
H   0.672659  -0.271782  -0.185986

