%chk=/home/boittier/MDCM/nms_sampling/butadiene_geom.xyz.dir/butadiene_2283.chk
%nproc=8
%mem=16000MB
#p B2PLYPD3/Def2QZVP 

butadiene

0 1
C  -3.863476   0.214524  -0.026632
C  -2.726332  -0.498392   0.093599
C  -1.377688   0.132019   0.049413
C  -0.258755  -0.685386   0.002577
H  -4.771792  -0.338463   0.011611
H  -3.817030   1.272104  -0.102230
H  -2.621212  -1.587450   0.187558
H  -1.202556   1.189323  -0.011282
H  -0.374934  -1.756000  -0.234943
H   0.697086  -0.299205   0.092303
