%chk=/home/boittier/MDCM/nms_sampling/butadiene_geom.xyz.dir/butadiene_1685.chk
%nproc=8
%mem=16000MB
#p B2PLYPD3/Def2QZVP 

butadiene

0 1
C  -3.816654   0.239196   0.062358
C  -2.712901  -0.520328  -0.006356
C  -1.414518   0.055534  -0.033548
C  -0.270203  -0.650489   0.062055
H  -4.798115  -0.183732   0.026906
H  -3.738007   1.359210   0.031421
H  -2.774161  -1.593809   0.062825
H  -1.382997   1.167621  -0.051485
H  -0.211462  -1.714737   0.117888
H   0.673992  -0.144381   0.131287
