%chk=/home/boittier/MDCM/nms_sampling/butadiene_geom.xyz.dir/butadiene_1908.chk
%nproc=8
%mem=16000MB
#p B2PLYPD3/Def2QZVP 

butadiene

0 1
C  -3.842460   0.215312  -0.000989
C  -2.705498  -0.494480   0.062100
C  -1.380755   0.101513   0.018776
C  -0.269096  -0.673839   0.032438
H  -4.796922  -0.247563   0.100016
H  -3.836170   1.274621  -0.142095
H  -2.719747  -1.588078   0.095103
H  -1.396033   1.171323   0.090669
H  -0.441873  -1.749942  -0.116013
H   0.735136  -0.243706  -0.008032
