%chk=/home/boittier/MDCM/nms_sampling/butadiene_geom.xyz.dir/butadiene_1891.chk
%nproc=8
%mem=16000MB
#p B2PLYPD3/Def2QZVP 

butadiene

0 1
C  -3.841162   0.207572  -0.013058
C  -2.715576  -0.494232   0.081160
C  -1.370767   0.105084   0.040727
C  -0.268232  -0.669914   0.010416
H  -4.832115  -0.257402  -0.137377
H  -3.877635   1.264021   0.022355
H  -2.811337  -1.552007   0.138768
H  -1.337319   1.185677   0.004128
H  -0.375862  -1.734781  -0.024444
H   0.756064  -0.284380  -0.093627
