%chk=/home/boittier/MDCM/nms_sampling/butadiene_geom.xyz.dir/butadiene_1578.chk
%nproc=8
%mem=16000MB
#p B2PLYPD3/Def2QZVP 

butadiene

0 1
C  -3.819571   0.215825   0.034649
C  -2.714280  -0.480068   0.008371
C  -1.401935   0.070249  -0.013987
C  -0.286286  -0.657977   0.066644
H  -4.818501  -0.250757   0.120907
H  -3.771901   1.273409   0.136703
H  -2.705005  -1.596367  -0.114398
H  -1.252160   1.158668  -0.146338
H  -0.302188  -1.752213   0.188429
H   0.704558  -0.201923  -0.046408

