%chk=/home/boittier/MDCM/nms_sampling/butadiene_geom.xyz.dir/butadiene_2369.chk
%nproc=8
%mem=16000MB
#p B2PLYPD3/Def2QZVP 

butadiene

0 1
C  -3.843711   0.262065   0.074645
C  -2.720057  -0.524330  -0.004101
C  -1.415709   0.022715  -0.025491
C  -0.252558  -0.634407   0.058796
H  -4.849543  -0.185578   0.055109
H  -3.712050   1.297183  -0.133452
H  -2.698407  -1.553257   0.071058
H  -1.343721   1.105815  -0.141289
H  -0.102894  -1.716597  -0.064669
H   0.697445  -0.090736   0.303714
