%chk=/home/boittier/MDCM/nms_sampling/butadiene_geom.xyz.dir/butadiene_2159.chk
%nproc=8
%mem=16000MB
#p B2PLYPD3/Def2QZVP 

butadiene

0 1
C  -3.810294   0.249817   0.075615
C  -2.727790  -0.550797  -0.068951
C  -1.425699   0.041289  -0.042858
C  -0.270323  -0.621623   0.086556
H  -4.817478  -0.030597   0.231539
H  -3.655056   1.324790   0.122028
H  -2.677013  -1.596496   0.149717
H  -1.328570   1.121153  -0.075764
H  -0.217114  -1.689367   0.182659
H   0.719843  -0.185370   0.135340

