%chk=/home/boittier/MDCM/nms_sampling/butadiene_geom.xyz.dir/butadiene_2395.chk
%nproc=8
%mem=16000MB
#p B2PLYPD3/Def2QZVP 

butadiene

0 1
C  -3.813708   0.246153  -0.042161
C  -2.733194  -0.542187   0.129391
C  -1.411851   0.036117   0.041604
C  -0.279035  -0.610893   0.009813
H  -4.855471  -0.088841  -0.193283
H  -3.533269   1.342559   0.014991
H  -2.668569  -1.593887   0.070123
H  -1.302708   1.040941   0.116981
H  -0.248315  -1.729929  -0.076275
H   0.673437  -0.154455  -0.257488

