%chk=/home/boittier/MDCM/nms_sampling/butadiene_geom.xyz.dir/butadiene_718.chk
%nproc=8
%mem=16000MB
#p B2PLYPD3/Def2QZVP 

butadiene

0 1
C  -3.829131   0.235260   0.011304
C  -2.723096  -0.509956   0.046983
C  -1.392401   0.061928   0.025756
C  -0.266021  -0.649245   0.017167
H  -4.771705  -0.270158   0.022191
H  -3.786594   1.313996  -0.082864
H  -2.797852  -1.590234   0.134592
H  -1.313881   1.156970   0.010279
H  -0.316390  -1.711851  -0.015071
H   0.710060  -0.169226   0.074349

