%chk=/home/boittier/MDCM/nms_sampling/butadiene_geom.xyz.dir/butadiene_1029.chk
%nproc=8
%mem=16000MB
#p B2PLYPD3/Def2QZVP 

butadiene

0 1
C  -3.809442   0.243120   0.047911
C  -2.733493  -0.532829   0.007963
C  -1.401507   0.066016  -0.028695
C  -0.265800  -0.647559   0.046972
H  -4.799057  -0.208574   0.023257
H  -3.714243   1.344796   0.110684
H  -2.805755  -1.604796   0.011114
H  -1.377176   1.113167  -0.066927
H  -0.271770  -1.677351   0.211410
H   0.692052  -0.137148   0.141881

