%chk=/home/boittier/MDCM/nms_sampling/butadiene_geom.xyz.dir/butadiene_951.chk
%nproc=8
%mem=16000MB
#p B2PLYPD3/Def2QZVP 

butadiene

0 1
C  -3.836751   0.233468   0.009172
C  -2.724952  -0.513115   0.052247
C  -1.385194   0.053925   0.029134
C  -0.260169  -0.640123   0.016126
H  -4.812372  -0.212128  -0.038814
H  -3.815642   1.323990  -0.059830
H  -2.806840  -1.584382   0.140048
H  -1.327804   1.142733   0.016016
H  -0.276279  -1.736103   0.000199
H   0.713379  -0.168817   0.015053
