%chk=/home/boittier/MDCM/nms_sampling/butadiene_geom.xyz.dir/butadiene_2373.chk
%nproc=8
%mem=16000MB
#p B2PLYPD3/Def2QZVP 

butadiene

0 1
C  -3.872678   0.213414  -0.042164
C  -2.726805  -0.496339   0.091584
C  -1.349269   0.080449   0.059611
C  -0.252849  -0.647754  -0.017411
H  -4.787815  -0.276279   0.095274
H  -3.953012   1.287403  -0.046761
H  -2.807804  -1.570595   0.225992
H  -1.191535   1.168115   0.001497
H  -0.387700  -1.721158  -0.159828
H   0.731204  -0.292199   0.169907

