%chk=/home/boittier/MDCM/nms_sampling/butadiene_geom.xyz.dir/butadiene_2310.chk
%nproc=8
%mem=16000MB
#p B2PLYPD3/Def2QZVP 

butadiene

0 1
C  -3.836976   0.232777   0.052757
C  -2.729001  -0.502848  -0.000250
C  -1.392056   0.022202  -0.027105
C  -0.248076  -0.634010   0.099960
H  -4.864268  -0.134771   0.085926
H  -3.816827   1.349641   0.158831
H  -2.885306  -1.605173  -0.249146
H  -1.255863   1.073564  -0.257845
H  -0.122882  -1.757165   0.165947
H   0.596478   0.010247  -0.167301

