%chk=/home/boittier/MDCM/nms_sampling/butadiene_geom.xyz.dir/butadiene_2557.chk
%nproc=8
%mem=16000MB
#p B2PLYPD3/Def2QZVP 

butadiene

0 1
C  -3.885814   0.196788   0.067875
C  -2.732126  -0.463593  -0.051630
C  -1.337094   0.070466  -0.009161
C  -0.245612  -0.663214   0.063849
H  -4.838432  -0.343313   0.038786
H  -3.833478   1.312610   0.259613
H  -2.823074  -1.507976   0.011706
H  -1.333892   1.181125  -0.245809
H  -0.376380  -1.737931   0.381559
H   0.785208  -0.191362  -0.016656

