%chk=/home/boittier/MDCM/nms_sampling/butadiene_geom.xyz.dir/butadiene_1103.chk
%nproc=8
%mem=16000MB
#p B2PLYPD3/Def2QZVP 

butadiene

0 1
C  -3.845093   0.210088  -0.004174
C  -2.724778  -0.487631   0.063621
C  -1.374211   0.084894   0.081213
C  -0.268987  -0.656456  -0.008075
H  -4.780943  -0.289195  -0.075363
H  -3.762833   1.283103  -0.156039
H  -2.812495  -1.587361   0.132378
H  -1.336322   1.196336  -0.046212
H  -0.369929  -1.755224  -0.017723
H   0.802815  -0.252194  -0.089954
