%chk=/home/boittier/MDCM/nms_sampling/butadiene_geom.xyz.dir/butadiene_1491.chk
%nproc=8
%mem=16000MB
#p B2PLYPD3/Def2QZVP 

butadiene

0 1
C  -3.821470   0.229985   0.050620
C  -2.726130  -0.511974   0.010823
C  -1.389724   0.078190  -0.035310
C  -0.275890  -0.646868   0.055359
H  -4.768113  -0.286487   0.015010
H  -3.762150   1.277138   0.128452
H  -2.772798  -1.556884  -0.070470
H  -1.303169   1.153891  -0.082953
H  -0.390252  -1.749493   0.246296
H   0.750514  -0.231872   0.087926

