%chk=/home/boittier/MDCM/nms_sampling/butadiene_geom.xyz.dir/butadiene_225.chk
%nproc=8
%mem=16000MB
#p B2PLYPD3/Def2QZVP 

butadiene

0 1
C  -3.831452   0.230638   0.033058
C  -2.709831  -0.505930   0.017435
C  -1.394021   0.061325  -0.006092
C  -0.269281  -0.648115   0.054551
H  -4.799905  -0.211421   0.115957
H  -3.799158   1.322539  -0.033843
H  -2.800780  -1.603889   0.019883
H  -1.379865   1.133844  -0.021101
H  -0.298947  -1.733176   0.045769
H   0.717261  -0.185535   0.020546

