%chk=/home/boittier/MDCM/nms_sampling/butadiene_geom.xyz.dir/butadiene_2418.chk
%nproc=8
%mem=16000MB
#p B2PLYPD3/Def2QZVP 

butadiene

0 1
C  -3.813084   0.260974   0.061117
C  -2.732132  -0.571751  -0.004688
C  -1.410887   0.040193   0.014778
C  -0.264777  -0.591917   0.053479
H  -4.864911  -0.119339  -0.011631
H  -3.633480   1.380634  -0.001204
H  -2.815697  -1.675550  -0.128045
H  -1.299046   1.071650  -0.237936
H  -0.291864  -1.741526   0.215695
H   0.771683  -0.214388  -0.070112

