%chk=/home/boittier/MDCM/nms_sampling/butadiene_geom.xyz.dir/butadiene_1997.chk
%nproc=8
%mem=16000MB
#p B2PLYPD3/Def2QZVP 

butadiene

0 1
C  -3.870650   0.181664  -0.055787
C  -2.741378  -0.458445   0.086375
C  -1.358748   0.139224   0.078328
C  -0.238237  -0.695797  -0.014006
H  -4.763350  -0.353924   0.037246
H  -3.975072   1.279519   0.072970
H  -2.823133  -1.543544   0.099827
H  -1.286791   1.173258   0.125583
H  -0.280234  -1.737710   0.170648
H   0.817836  -0.369789  -0.294781

