%chk=/home/boittier/MDCM/nms_sampling/butadiene_geom.xyz.dir/butadiene_1734.chk
%nproc=8
%mem=16000MB
#p B2PLYPD3/Def2QZVP 

butadiene

0 1
C  -3.862840   0.211029   0.030208
C  -2.720320  -0.481717   0.004548
C  -1.358842   0.070758  -0.021060
C  -0.263890  -0.653089   0.061711
H  -4.817644  -0.281568   0.162930
H  -3.868856   1.288686   0.086269
H  -2.755842  -1.561031   0.037887
H  -1.277205   1.159517   0.002674
H  -0.396937  -1.766317   0.129946
H   0.763144  -0.209524   0.015086
