%chk=/home/boittier/MDCM/nms_sampling/butadiene_geom.xyz.dir/butadiene_1041.chk
%nproc=8
%mem=16000MB
#p B2PLYPD3/Def2QZVP 

butadiene

0 1
C  -3.832177   0.241795   0.051512
C  -2.735216  -0.512331  -0.023500
C  -1.394778   0.050917  -0.014874
C  -0.251984  -0.639865   0.056373
H  -4.752562  -0.236293   0.158487
H  -3.872965   1.310196   0.053903
H  -2.816458  -1.615795   0.086618
H  -1.291737   1.122616  -0.068675
H  -0.232085  -1.709959   0.161680
H   0.737231  -0.174793   0.113600
