%chk=/home/boittier/MDCM/nms_sampling/butadiene_geom.xyz.dir/butadiene_1091.chk
%nproc=8
%mem=16000MB
#p B2PLYPD3/Def2QZVP 

butadiene

0 1
C  -3.831686   0.221047  -0.011911
C  -2.723706  -0.512260   0.091269
C  -1.402069   0.068911   0.041742
C  -0.261463  -0.647635  -0.009484
H  -4.848229  -0.118138  -0.094623
H  -3.703845   1.329502  -0.039378
H  -2.756247  -1.604757   0.007698
H  -1.369706   1.144751   0.028403
H  -0.236851  -1.728312   0.109097
H   0.732588  -0.198123  -0.021553

