%chk=/home/boittier/MDCM/nms_sampling/butadiene_geom.xyz.dir/butadiene_1416.chk
%nproc=8
%mem=16000MB
#p B2PLYPD3/Def2QZVP 

butadiene

0 1
C  -3.811241   0.257121  -0.011680
C  -2.720098  -0.526895   0.092412
C  -1.401054   0.043562   0.043208
C  -0.272879  -0.635446  -0.009532
H  -4.809796  -0.266893  -0.075843
H  -3.769808   1.348120  -0.075862
H  -2.733072  -1.608381   0.021222
H  -1.401577   1.098184   0.021527
H  -0.304819  -1.709386   0.056235
H   0.685001  -0.155168   0.014327

