%chk=/home/boittier/MDCM/nms_sampling/butadiene_geom.xyz.dir/butadiene_2685.chk
%nproc=8
%mem=16000MB
#p B2PLYPD3/Def2QZVP 

butadiene

0 1
C  -3.823164   0.249344  -0.016297
C  -2.761090  -0.504235   0.049672
C  -1.393112   0.003327   0.044938
C  -0.220405  -0.623542   0.014041
H  -4.780166  -0.270842   0.000989
H  -3.764617   1.363426   0.131073
H  -2.962689  -1.602490   0.136779
H  -1.419022   1.042886  -0.025602
H  -0.205131  -1.624126   0.110857
H   0.713713  -0.050836  -0.124610

