%chk=/home/boittier/MDCM/nms_sampling/butadiene_geom.xyz.dir/butadiene_1574.chk
%nproc=8
%mem=16000MB
#p B2PLYPD3/Def2QZVP 

butadiene

0 1
C  -3.839091   0.224661   0.022899
C  -2.712784  -0.492492   0.047951
C  -1.388553   0.055907   0.003848
C  -0.266427  -0.656286   0.023298
H  -4.838784  -0.176118  -0.016804
H  -3.833861   1.284784  -0.118652
H  -2.774673  -1.545063   0.125409
H  -1.356206   1.118714   0.111326
H  -0.200237  -1.746851   0.017981
H   0.660047  -0.137583   0.073238
