%chk=/home/boittier/MDCM/nms_sampling/butadiene_geom.xyz.dir/butadiene_1192.chk
%nproc=8
%mem=16000MB
#p B2PLYPD3/Def2QZVP 

butadiene

0 1
C  -3.860674   0.215797  -0.000984
C  -2.716376  -0.470989   0.049320
C  -1.380386   0.065798   0.044236
C  -0.265532  -0.663234   0.024591
H  -4.804869  -0.312675  -0.022756
H  -3.776143   1.270551  -0.022665
H  -2.701728  -1.563863   0.104750
H  -1.252131   1.181648   0.014134
H  -0.301325  -1.756847   0.037420
H   0.697556  -0.179749  -0.179418

