%chk=/home/boittier/MDCM/nms_sampling/butadiene_geom.xyz.dir/butadiene_58.chk
%nproc=8
%mem=16000MB
#p B2PLYPD3/Def2QZVP 

butadiene

0 1
C  -3.842741   0.211342   0.032083
C  -2.710471  -0.488474   0.014886
C  -1.384695   0.077845  -0.010111
C  -0.271274  -0.660472   0.050651
H  -4.810042  -0.226649   0.108539
H  -3.826688   1.292841   0.060066
H  -2.749624  -1.561990   0.030742
H  -1.279633   1.170466  -0.100559
H  -0.352277  -1.746663   0.067153
H   0.708695  -0.213943   0.110874

