%chk=/home/boittier/MDCM/nms_sampling/butadiene_geom.xyz.dir/butadiene_2714.chk
%nproc=8
%mem=16000MB
#p B2PLYPD3/Def2QZVP 

butadiene

0 1
C  -3.817235   0.255279   0.050299
C  -2.709846  -0.564201  -0.029416
C  -1.413494   0.035132  -0.036282
C  -0.253240  -0.605837   0.078805
H  -4.882564  -0.032215   0.099577
H  -3.803426   1.362662   0.354658
H  -2.796478  -1.617433  -0.035031
H  -1.415443   1.123281  -0.226274
H  -0.376100  -1.774130   0.310995
H   0.790567  -0.169654   0.017437

