%chk=/home/boittier/MDCM/nms_sampling/butadiene_geom.xyz.dir/butadiene_1515.chk
%nproc=8
%mem=16000MB
#p B2PLYPD3/Def2QZVP 

butadiene

0 1
C  -3.857169   0.204722   0.007562
C  -2.723056  -0.475756   0.057458
C  -1.373958   0.083972   0.015760
C  -0.257795  -0.659188   0.036493
H  -4.778888  -0.289062   0.004981
H  -3.892490   1.296296  -0.003685
H  -2.735750  -1.554479   0.006056
H  -1.319121   1.198322  -0.047791
H  -0.364087  -1.766524  -0.001503
H   0.822200  -0.314539  -0.043670

