%chk=/home/boittier/MDCM/nms_sampling/butadiene_geom.xyz.dir/butadiene_2666.chk
%nproc=8
%mem=16000MB
#p B2PLYPD3/Def2QZVP 

butadiene

0 1
C  -3.818682   0.256169   0.080021
C  -2.703045  -0.529198  -0.038900
C  -1.411968   0.045387  -0.078338
C  -0.265858  -0.643851   0.121445
H  -4.737075  -0.193223   0.322785
H  -3.740051   1.309276   0.030096
H  -2.853328  -1.596603  -0.129075
H  -1.487440   1.134667  -0.113022
H  -0.264480  -1.701572   0.053400
H   0.663574  -0.135730   0.135826
