%chk=/home/boittier/MDCM/nms_sampling/butadiene_geom.xyz.dir/butadiene_536.chk
%nproc=8
%mem=16000MB
#p B2PLYPD3/Def2QZVP 

butadiene

0 1
C  -3.847380   0.225063   0.009382
C  -2.715042  -0.494089   0.051457
C  -1.382499   0.071580   0.027179
C  -0.259807  -0.660487   0.024040
H  -4.802723  -0.262551  -0.026773
H  -3.896444   1.301090  -0.024367
H  -2.779612  -1.586620   0.093106
H  -1.280692   1.154205  -0.043210
H  -0.281763  -1.729378  -0.005897
H   0.681428  -0.191745  -0.001268
