%chk=/home/boittier/MDCM/nms_sampling/butadiene_geom.xyz.dir/butadiene_1338.chk
%nproc=8
%mem=16000MB
#p B2PLYPD3/Def2QZVP 

butadiene

0 1
C  -3.841516   0.232248  -0.021380
C  -2.734521  -0.520473   0.077923
C  -1.392984   0.063075   0.032366
C  -0.252935  -0.642497   0.009197
H  -4.850947  -0.184190  -0.018434
H  -3.710683   1.279270   0.038821
H  -2.809489  -1.600407   0.127190
H  -1.236239   1.166169   0.064617
H  -0.239592  -1.716840   0.019001
H   0.705853  -0.147590  -0.052555

