%chk=/home/boittier/MDCM/nms_sampling/butadiene_geom.xyz.dir/butadiene_1352.chk
%nproc=8
%mem=16000MB
#p B2PLYPD3/Def2QZVP 

butadiene

0 1
C  -3.838647   0.239499   0.002599
C  -2.730200  -0.519303   0.062701
C  -1.386415   0.057425   0.064269
C  -0.237707  -0.642195  -0.000924
H  -4.880190  -0.218785  -0.110012
H  -3.772976   1.340311  -0.090900
H  -2.819845  -1.615261   0.093211
H  -1.434356   1.105607  -0.065340
H  -0.306114  -1.726847   0.029564
H   0.714193  -0.143890  -0.074436

