%chk=/home/boittier/MDCM/nms_sampling/butadiene_geom.xyz.dir/butadiene_2833.chk
%nproc=8
%mem=16000MB
#p B2PLYPD3/Def2QZVP 

butadiene

0 1
C  -3.855882   0.200389   0.022195
C  -2.712378  -0.431520   0.027236
C  -1.400330   0.061996  -0.013844
C  -0.240481  -0.673661   0.045417
H  -4.709229  -0.344796  -0.079194
H  -3.943304   1.210552   0.287253
H  -2.879135  -1.514087   0.035399
H  -1.325033   1.172389  -0.120785
H  -0.268381  -1.705664   0.220895
H   0.818250  -0.276977  -0.013370
