%chk=/home/boittier/MDCM/nms_sampling/butadiene_geom.xyz.dir/butadiene_562.chk
%nproc=8
%mem=16000MB
#p B2PLYPD3/Def2QZVP 

butadiene

0 1
C  -3.850147   0.229975   0.011852
C  -2.726828  -0.509479   0.050398
C  -1.379269   0.068149   0.029663
C  -0.251743  -0.657816   0.017759
H  -4.822163  -0.212455  -0.072080
H  -3.790682   1.292003  -0.031002
H  -2.807244  -1.587023   0.120949
H  -1.331264   1.159805  -0.007481
H  -0.261615  -1.719607   0.034032
H   0.689555  -0.122881  -0.018870

