%chk=/home/boittier/MDCM/nms_sampling/butadiene_geom.xyz.dir/butadiene_235.chk
%nproc=8
%mem=16000MB
#p B2PLYPD3/Def2QZVP 

butadiene

0 1
C  -3.826535   0.236005   0.044474
C  -2.723465  -0.516799   0.014227
C  -1.393353   0.066708  -0.011144
C  -0.269433  -0.652153   0.053539
H  -4.814264  -0.222479  -0.025203
H  -3.729355   1.325418   0.059695
H  -2.779148  -1.594108   0.021915
H  -1.358963   1.142743  -0.090670
H  -0.231192  -1.717837   0.117327
H   0.658147  -0.157632   0.016952

