%chk=/home/boittier/MDCM/nms_sampling/butadiene_geom.xyz.dir/butadiene_60.chk
%nproc=8
%mem=16000MB
#p B2PLYPD3/Def2QZVP 

butadiene

0 1
C  -3.849630   0.209681   0.039542
C  -2.717051  -0.474251   0.017128
C  -1.385442   0.073758   0.003923
C  -0.257913  -0.663666   0.047710
H  -4.800706  -0.282112   0.030434
H  -3.833576   1.287188  -0.015871
H  -2.784946  -1.541738  -0.023578
H  -1.297534   1.170515  -0.079758
H  -0.289484  -1.743262   0.121046
H   0.710958  -0.230144  -0.021431

