%chk=/home/boittier/MDCM/nms_sampling/butadiene_geom.xyz.dir/butadiene_1852.chk
%nproc=8
%mem=16000MB
#p B2PLYPD3/Def2QZVP 

butadiene

0 1
C  -3.856818   0.213790  -0.019773
C  -2.706571  -0.464670   0.082892
C  -1.366674   0.072540   0.078889
C  -0.268606  -0.671828  -0.021044
H  -4.789457  -0.341146  -0.050696
H  -3.987508   1.306803  -0.105269
H  -2.747898  -1.560242   0.038801
H  -1.338071   1.150209  -0.003037
H  -0.326370  -1.730401   0.098542
H   0.749214  -0.224569  -0.100661
