%chk=/home/boittier/MDCM/nms_sampling/butadiene_geom.xyz.dir/butadiene_2031.chk
%nproc=8
%mem=16000MB
#p B2PLYPD3/Def2QZVP 

butadiene

0 1
C  -3.792548   0.197957  -0.025512
C  -2.693352  -0.457791   0.105900
C  -1.396615   0.115086   0.097008
C  -0.312754  -0.684162  -0.033332
H  -4.719186  -0.401814  -0.336205
H  -3.907031   1.197614  -0.108097
H  -2.864445  -1.522971   0.245807
H  -1.318935   1.234626   0.048210
H  -0.418200  -1.732381  -0.028892
H   0.748879  -0.390503  -0.198978
