%chk=/home/boittier/MDCM/nms_sampling/butadiene_geom.xyz.dir/butadiene_1780.chk
%nproc=8
%mem=16000MB
#p B2PLYPD3/Def2QZVP 

butadiene

0 1
C  -3.818483   0.241797   0.043292
C  -2.712495  -0.517755   0.007734
C  -1.406817   0.047722   0.006304
C  -0.279978  -0.645232   0.040629
H  -4.810222  -0.169015  -0.019950
H  -3.712638   1.303584   0.020003
H  -2.781186  -1.557213   0.021966
H  -1.406412   1.112093  -0.041662
H  -0.199025  -1.698928   0.215085
H   0.714415  -0.136610  -0.055044

