%chk=/home/boittier/MDCM/nms_sampling/butadiene_geom.xyz.dir/butadiene_2114.chk
%nproc=8
%mem=16000MB
#p B2PLYPD3/Def2QZVP 

butadiene

0 1
C  -3.826738   0.197675   0.061071
C  -2.697561  -0.473046  -0.018096
C  -1.411694   0.115642   0.017125
C  -0.289102  -0.690735   0.042618
H  -4.753851  -0.219313  -0.069929
H  -3.815789   1.302529  -0.015474
H  -2.770837  -1.612576   0.106051
H  -1.306209   1.187928  -0.069329
H  -0.191108  -1.792078   0.216568
H   0.713325  -0.234688  -0.080731
