%chk=/home/boittier/MDCM/nms_sampling/butadiene_geom.xyz.dir/butadiene_2229.chk
%nproc=8
%mem=16000MB
#p B2PLYPD3/Def2QZVP 

butadiene

0 1
C  -3.798686   0.254691  -0.047329
C  -2.707215  -0.520793   0.122083
C  -1.425984   0.038322   0.063660
C  -0.279266  -0.638068  -0.048191
H  -4.783397  -0.190002   0.022899
H  -3.603302   1.287170  -0.231647
H  -2.800903  -1.645334   0.212843
H  -1.411886   1.078829   0.266784
H  -0.294187  -1.682176  -0.060687
H   0.620358  -0.095010   0.125265
