%chk=/home/boittier/MDCM/nms_sampling/butadiene_geom.xyz.dir/butadiene_432.chk
%nproc=8
%mem=16000MB
#p B2PLYPD3/Def2QZVP 

butadiene

0 1
C  -3.844473   0.233159   0.005185
C  -2.724527  -0.512626   0.046769
C  -1.382468   0.056027   0.030017
C  -0.249564  -0.640169   0.024717
H  -4.847598  -0.199617   0.012198
H  -3.800585   1.324319  -0.030184
H  -2.816646  -1.589192   0.079457
H  -1.381658   1.108846   0.030369
H  -0.266345  -1.714690   0.063886
H   0.711729  -0.195119  -0.094542
