%chk=/home/boittier/MDCM/nms_sampling/butadiene_geom.xyz.dir/butadiene_603.chk
%nproc=8
%mem=16000MB
#p B2PLYPD3/Def2QZVP 

butadiene

0 1
C  -3.844662   0.215178   0.016489
C  -2.715432  -0.479342   0.048330
C  -1.387705   0.077084   0.013036
C  -0.258327  -0.663227   0.025031
H  -4.803058  -0.297610  -0.000934
H  -3.862706   1.296164   0.005715
H  -2.794038  -1.557608  -0.015487
H  -1.331005   1.163826  -0.040832
H  -0.285785  -1.759826   0.121408
H   0.733601  -0.236402   0.014524
