%chk=/home/boittier/MDCM/nms_sampling/butadiene_geom.xyz.dir/butadiene_439.chk
%nproc=8
%mem=16000MB
#p B2PLYPD3/Def2QZVP 

butadiene

0 1
C  -3.851031   0.212276   0.040436
C  -2.715020  -0.481952   0.008449
C  -1.374950   0.086114   0.010694
C  -0.267706  -0.671088   0.041319
H  -4.814517  -0.268807  -0.007486
H  -3.859972   1.282480   0.015347
H  -2.765925  -1.558789   0.057509
H  -1.292161   1.149481  -0.078771
H  -0.277226  -1.752971   0.140895
H   0.688701  -0.194459  -0.018197
