%chk=/home/boittier/MDCM/nms_sampling/butadiene_geom.xyz.dir/butadiene_1881.chk
%nproc=8
%mem=16000MB
#p B2PLYPD3/Def2QZVP 

butadiene

0 1
C  -3.824616   0.212348   0.053245
C  -2.700560  -0.481069  -0.008551
C  -1.390789   0.096252  -0.036524
C  -0.283531  -0.674697   0.084494
H  -4.803920  -0.288154   0.203013
H  -3.873876   1.264576  -0.002849
H  -2.749254  -1.535413  -0.017731
H  -1.378461   1.166107  -0.068988
H  -0.350206  -1.739817   0.022479
H   0.726896  -0.291901   0.080078

