%chk=/home/boittier/MDCM/nms_sampling/butadiene_geom.xyz.dir/butadiene_1445.chk
%nproc=8
%mem=16000MB
#p B2PLYPD3/Def2QZVP 

butadiene

0 1
C  -3.863245   0.211696  -0.010408
C  -2.717905  -0.484925   0.077898
C  -1.368660   0.082545   0.043131
C  -0.247006  -0.671074  -0.011853
H  -4.811321  -0.285443   0.060360
H  -3.878473   1.320802  -0.170581
H  -2.799922  -1.535846   0.113399
H  -1.353641   1.174443   0.072714
H  -0.329451  -1.758122  -0.030844
H   0.707571  -0.180201   0.142735
