%chk=/home/boittier/MDCM/nms_sampling/butadiene_geom.xyz.dir/butadiene_826.chk
%nproc=8
%mem=16000MB
#p B2PLYPD3/Def2QZVP 

butadiene

0 1
C  -3.834614   0.232405   0.044873
C  -2.721896  -0.515780   0.011374
C  -1.386936   0.062843  -0.001353
C  -0.266122  -0.644141   0.050521
H  -4.842343  -0.197740   0.055204
H  -3.720459   1.305251  -0.026898
H  -2.795958  -1.591682  -0.044638
H  -1.353509   1.122215  -0.076469
H  -0.286946  -1.725837   0.141845
H   0.699154  -0.160609  -0.004651
