%chk=/home/boittier/MDCM/nms_sampling/butadiene_geom.xyz.dir/butadiene_2223.chk
%nproc=8
%mem=16000MB
#p B2PLYPD3/Def2QZVP 

butadiene

0 1
C  -3.842080   0.265578  -0.025103
C  -2.732801  -0.551099   0.103349
C  -1.380861   0.024562   0.067633
C  -0.252179  -0.622000  -0.042400
H  -4.876252  -0.098835  -0.126610
H  -3.747712   1.358504  -0.054764
H  -2.672008  -1.695042   0.153178
H  -1.452993   1.115954  -0.042573
H  -0.304191  -1.689304   0.003420
H   0.741612  -0.062162   0.178041

