%chk=/home/boittier/MDCM/nms_sampling/butadiene_geom.xyz.dir/butadiene_499.chk
%nproc=8
%mem=16000MB
#p B2PLYPD3/Def2QZVP 

butadiene

0 1
C  -3.834978   0.230641   0.015446
C  -2.719684  -0.518203   0.047786
C  -1.391033   0.064244   0.009741
C  -0.264738  -0.645324   0.035722
H  -4.861272  -0.154382   0.020333
H  -3.773101   1.324700  -0.036750
H  -2.729363  -1.597557   0.057612
H  -1.337325   1.134832  -0.015699
H  -0.287816  -1.743397  -0.012373
H   0.700213  -0.165071   0.021043
