%chk=/home/boittier/MDCM/nms_sampling/butadiene_geom.xyz.dir/butadiene_1558.chk
%nproc=8
%mem=16000MB
#p B2PLYPD3/Def2QZVP 

butadiene

0 1
C  -3.842227   0.215987   0.037725
C  -2.708675  -0.480422   0.018612
C  -1.383908   0.094321  -0.001936
C  -0.291957  -0.680820   0.060164
H  -4.750981  -0.311673  -0.024234
H  -3.822658   1.256816   0.104308
H  -2.642969  -1.526630  -0.010253
H  -1.285676   1.182255  -0.193306
H  -0.315531  -1.750888   0.060856
H   0.724328  -0.219686  -0.020012
