%chk=/home/boittier/MDCM/nms_sampling/butadiene_geom.xyz.dir/butadiene_2034.chk
%nproc=8
%mem=16000MB
#p B2PLYPD3/Def2QZVP 

butadiene

0 1
C  -3.877958   0.227202   0.041613
C  -2.744544  -0.504542  -0.027303
C  -1.368475   0.036779  -0.002147
C  -0.224423  -0.636506   0.069813
H  -4.888445  -0.167138   0.222710
H  -3.710558   1.277073  -0.065837
H  -2.763104  -1.535396   0.238115
H  -1.270753   1.095724   0.040423
H  -0.314271  -1.724626  -0.045681
H   0.715239  -0.051460   0.009921

