%chk=/home/boittier/MDCM/nms_sampling/butadiene_geom.xyz.dir/butadiene_327.chk
%nproc=8
%mem=16000MB
#p B2PLYPD3/Def2QZVP 

butadiene

0 1
C  -3.843614   0.215699   0.032937
C  -2.708532  -0.497700   0.026643
C  -1.382524   0.085512  -0.007957
C  -0.277732  -0.661250   0.054504
H  -4.823262  -0.199569  -0.005212
H  -3.823613   1.291299   0.070113
H  -2.719114  -1.589171   0.004029
H  -1.301171   1.156922  -0.100393
H  -0.324815  -1.740908   0.069545
H   0.719801  -0.231642  -0.000828

