%chk=/home/boittier/MDCM/nms_sampling/butadiene_geom.xyz.dir/butadiene_1548.chk
%nproc=8
%mem=16000MB
#p B2PLYPD3/Def2QZVP 

butadiene

0 1
C  -3.821213   0.249215   0.029888
C  -2.729396  -0.541493   0.021930
C  -1.396132   0.067405   0.012915
C  -0.254035  -0.637409   0.034281
H  -4.825011  -0.192878   0.070591
H  -3.751978   1.343370   0.040047
H  -2.808625  -1.654240  -0.112791
H  -1.403895   1.120847  -0.119683
H  -0.311054  -1.756828   0.243421
H   0.699682  -0.147289  -0.018824
