%chk=/home/boittier/MDCM/nms_sampling/butadiene_geom.xyz.dir/butadiene_2286.chk
%nproc=8
%mem=16000MB
#p B2PLYPD3/Def2QZVP 

butadiene

0 1
C  -3.851666   0.247640  -0.035056
C  -2.729932  -0.512328   0.073947
C  -1.367992   0.040674   0.103745
C  -0.242743  -0.652010  -0.049439
H  -4.737185  -0.306284  -0.056336
H  -3.873912   1.352471  -0.073240
H  -2.911458  -1.602319   0.260525
H  -1.373265   1.193408   0.061670
H  -0.222694  -1.716374   0.111520
H   0.609313  -0.048896  -0.047361

