%chk=/home/boittier/MDCM/nms_sampling/butadiene_geom.xyz.dir/butadiene_836.chk
%nproc=8
%mem=16000MB
#p B2PLYPD3/Def2QZVP 

butadiene

0 1
C  -3.835887   0.233455   0.035317
C  -2.728017  -0.516633   0.012523
C  -1.388724   0.057146  -0.000138
C  -0.263005  -0.638922   0.054596
H  -4.850539  -0.221329   0.048827
H  -3.707069   1.334304   0.055044
H  -2.760993  -1.596433   0.023763
H  -1.310892   1.130919  -0.120462
H  -0.289616  -1.718659   0.074426
H   0.703976  -0.170309   0.004794
