%chk=/home/boittier/MDCM/nms_sampling/butadiene_geom.xyz.dir/butadiene_1641.chk
%nproc=8
%mem=16000MB
#p B2PLYPD3/Def2QZVP 

butadiene

0 1
C  -3.805784   0.233669   0.030332
C  -2.719528  -0.514275   0.025552
C  -1.402798   0.065247  -0.015359
C  -0.276131  -0.646858   0.057389
H  -4.779638  -0.229051   0.014596
H  -3.795454   1.317057   0.052196
H  -2.869379  -1.608935   0.031784
H  -1.377921   1.168346   0.018452
H  -0.269835  -1.725874   0.098836
H   0.734355  -0.192325  -0.060435

