%chk=/home/boittier/MDCM/nms_sampling/butadiene_geom.xyz.dir/butadiene_1291.chk
%nproc=8
%mem=16000MB
#p B2PLYPD3/Def2QZVP 

butadiene

0 1
C  -3.844830   0.250750   0.069704
C  -2.724107  -0.516078  -0.014007
C  -1.391863   0.034836  -0.011319
C  -0.238815  -0.638891   0.061738
H  -4.798664  -0.219732   0.023214
H  -3.860672   1.339044  -0.001463
H  -2.777300  -1.589274  -0.025254
H  -1.386342   1.084844  -0.189903
H  -0.275741  -1.725670   0.132231
H   0.684214  -0.096642   0.084145
