%chk=/home/boittier/MDCM/nms_sampling/butadiene_geom.xyz.dir/butadiene_1008.chk
%nproc=8
%mem=16000MB
#p B2PLYPD3/Def2QZVP 

butadiene

0 1
C  -3.834505   0.207981  -0.026572
C  -2.695272  -0.482348   0.098112
C  -1.379044   0.093803   0.045923
C  -0.299854  -0.677863   0.000225
H  -4.789289  -0.313299  -0.041619
H  -3.814931   1.315556  -0.005748
H  -2.736010  -1.579017   0.034190
H  -1.239572   1.199789  -0.016644
H  -0.407625  -1.742519  -0.015506
H   0.666974  -0.177286  -0.035579
