%chk=/home/boittier/MDCM/nms_sampling/butadiene_geom.xyz.dir/butadiene_2242.chk
%nproc=8
%mem=16000MB
#p B2PLYPD3/Def2QZVP 

butadiene

0 1
C  -3.799960   0.245468   0.098731
C  -2.718840  -0.529790  -0.013423
C  -1.385822   0.042054  -0.077694
C  -0.288349  -0.627870   0.091353
H  -4.772774  -0.201419   0.070387
H  -3.735252   1.364382  -0.107878
H  -2.926285  -1.657803  -0.115339
H  -1.407954   1.088925  -0.030386
H  -0.320924  -1.734880   0.101916
H   0.657349  -0.072234   0.209040

