%chk=/home/boittier/MDCM/nms_sampling/butadiene_geom.xyz.dir/butadiene_2165.chk
%nproc=8
%mem=16000MB
#p B2PLYPD3/Def2QZVP 

butadiene

0 1
C  -3.848764   0.257737  -0.016442
C  -2.759419  -0.537483   0.058943
C  -1.368369   0.015736   0.082247
C  -0.230451  -0.611831   0.016613
H  -4.771123  -0.233024  -0.065865
H  -3.795307   1.319980   0.033666
H  -2.913953  -1.614001   0.095197
H  -1.327085   1.165338  -0.185113
H  -0.258454  -1.638712  -0.041143
H   0.761284  -0.136778  -0.229642
