%chk=/home/boittier/MDCM/nms_sampling/butadiene_geom.xyz.dir/butadiene_224.chk
%nproc=8
%mem=16000MB
#p B2PLYPD3/Def2QZVP 

butadiene

0 1
C  -3.835938   0.226593   0.025142
C  -2.721671  -0.498672   0.031982
C  -1.383715   0.064651  -0.001787
C  -0.262402  -0.657494   0.032053
H  -4.821419  -0.227145   0.060774
H  -3.797244   1.288512  -0.025544
H  -2.812210  -1.592345   0.064389
H  -1.332955   1.144893   0.022696
H  -0.273814  -1.716125   0.084877
H   0.661723  -0.137237   0.092446
