%chk=/home/boittier/MDCM/nms_sampling/butadiene_geom.xyz.dir/butadiene_682.chk
%nproc=8
%mem=16000MB
#p B2PLYPD3/Def2QZVP 

butadiene

0 1
C  -3.855217   0.215284   0.007117
C  -2.718384  -0.487136   0.054172
C  -1.374696   0.078149   0.010767
C  -0.255801  -0.657648   0.029752
H  -4.806900  -0.271680   0.023356
H  -3.816343   1.296806  -0.062680
H  -2.802110  -1.572555   0.122256
H  -1.342690   1.128725   0.081504
H  -0.340913  -1.751191  -0.029513
H   0.735563  -0.219475   0.006789
