%chk=/home/boittier/MDCM/nms_sampling/butadiene_geom.xyz.dir/butadiene_14.chk
%nproc=8
%mem=16000MB
#p B2PLYPD3/Def2QZVP 

butadiene

0 1
C  -3.845205   0.212929   0.034359
C  -2.719120  -0.479012   0.024278
C  -1.377741   0.080527   0.001547
C  -0.270734  -0.665345   0.037462
H  -4.796683  -0.295058  -0.040865
H  -3.824328   1.282765   0.052872
H  -2.802605  -1.571813   0.050289
H  -1.286557   1.154259  -0.074317
H  -0.262098  -1.756553   0.127283
H   0.704897  -0.198626   0.033604

