%chk=/home/boittier/MDCM/nms_sampling/butadiene_geom.xyz.dir/butadiene_2417.chk
%nproc=8
%mem=16000MB
#p B2PLYPD3/Def2QZVP 

butadiene

0 1
C  -3.854137   0.216740   0.003493
C  -2.702321  -0.484119   0.059461
C  -1.387392   0.100495   0.054679
C  -0.277578  -0.677611   0.034928
H  -4.791981  -0.270793  -0.038872
H  -3.899251   1.277197  -0.061864
H  -2.785722  -1.568345  -0.108795
H  -1.226848   1.094563  -0.093793
H  -0.129940  -1.774135   0.071083
H   0.665045  -0.215601  -0.317532
