%chk=/home/boittier/MDCM/nms_sampling/butadiene_geom.xyz.dir/butadiene_167.chk
%nproc=8
%mem=16000MB
#p B2PLYPD3/Def2QZVP 

butadiene

0 1
C  -3.852054   0.211214   0.035206
C  -2.709288  -0.474313   0.010921
C  -1.379592   0.071228  -0.008834
C  -0.266428  -0.665234   0.056930
H  -4.821824  -0.263084   0.148553
H  -3.832459   1.274418  -0.026235
H  -2.785507  -1.558082   0.018246
H  -1.297194   1.165926  -0.031632
H  -0.290269  -1.757582   0.052702
H   0.688085  -0.179181   0.042986
