%chk=/home/boittier/MDCM/nms_sampling/butadiene_geom.xyz.dir/butadiene_88.chk
%nproc=8
%mem=16000MB
#p B2PLYPD3/Def2QZVP 

butadiene

0 1
C  -3.842247   0.230115   0.031601
C  -2.721176  -0.503485   0.005725
C  -1.389526   0.064221   0.002930
C  -0.263623  -0.656714   0.048559
H  -4.806264  -0.231493   0.088425
H  -3.790194   1.307197   0.076285
H  -2.792190  -1.593446   0.045716
H  -1.314505   1.165843  -0.094251
H  -0.210185  -1.720100   0.129010
H   0.700961  -0.150851   0.011555
