%chk=/home/boittier/MDCM/nms_sampling/butadiene_geom.xyz.dir/butadiene_463.chk
%nproc=8
%mem=16000MB
#p B2PLYPD3/Def2QZVP 

butadiene

0 1
C  -3.838237   0.234884   0.004118
C  -2.727298  -0.520685   0.051202
C  -1.390585   0.067610   0.033063
C  -0.249830  -0.645454   0.021567
H  -4.827572  -0.201842  -0.054764
H  -3.789991   1.322159   0.017740
H  -2.822605  -1.591917   0.114607
H  -1.362909   1.127493  -0.028442
H  -0.252769  -1.721153   0.033152
H   0.717938  -0.192646  -0.065854
