%chk=/home/boittier/MDCM/nms_sampling/butadiene_geom.xyz.dir/butadiene_348.chk
%nproc=8
%mem=16000MB
#p B2PLYPD3/Def2QZVP 

butadiene

0 1
C  -3.826942   0.229427   0.026947
C  -2.717737  -0.501992   0.026444
C  -1.397012   0.065788  -0.001031
C  -0.265089  -0.651022   0.047178
H  -4.804309  -0.253515  -0.008372
H  -3.741768   1.305516   0.054363
H  -2.799484  -1.586276   0.090727
H  -1.363205   1.124589  -0.043132
H  -0.317346  -1.724121   0.047806
H   0.696156  -0.185663  -0.002664
