%chk=/home/boittier/MDCM/nms_sampling/butadiene_geom.xyz.dir/butadiene_979.chk
%nproc=8
%mem=16000MB
#p B2PLYPD3/Def2QZVP 

butadiene

0 1
C  -3.861533   0.221261  -0.013441
C  -2.718358  -0.484702   0.071061
C  -1.377255   0.088176   0.049596
C  -0.264333  -0.668994  -0.010707
H  -4.788299  -0.321090  -0.012018
H  -3.900342   1.279706  -0.067275
H  -2.726761  -1.599053   0.092301
H  -1.230204   1.175546   0.106660
H  -0.238817  -1.753377   0.134408
H   0.730408  -0.239038  -0.056113

