%chk=/home/boittier/MDCM/nms_sampling/butadiene_geom.xyz.dir/butadiene_1710.chk
%nproc=8
%mem=16000MB
#p B2PLYPD3/Def2QZVP 

butadiene

0 1
C  -3.850552   0.230461  -0.006542
C  -2.728906  -0.503262   0.076485
C  -1.379301   0.066035   0.036196
C  -0.248309  -0.664994  -0.006279
H  -4.807128  -0.212156  -0.113249
H  -3.814603   1.297214   0.003519
H  -2.816251  -1.580523   0.090638
H  -1.316077   1.115402   0.055045
H  -0.211580  -1.735112   0.129726
H   0.624375  -0.046789  -0.021004
