%chk=/home/boittier/MDCM/nms_sampling/butadiene_geom.xyz.dir/butadiene_2487.chk
%nproc=8
%mem=16000MB
#p B2PLYPD3/Def2QZVP 

butadiene

0 1
C  -3.799773   0.255490   0.049551
C  -2.697395  -0.526932  -0.019455
C  -1.423308   0.018834   0.023268
C  -0.271785  -0.617375   0.039751
H  -4.823869  -0.150104   0.082269
H  -3.789827   1.309581   0.132140
H  -2.871293  -1.620159  -0.084527
H  -1.364843   1.034461  -0.317196
H  -0.376267  -1.675793   0.297773
H   0.723615  -0.115998   0.037774
