%chk=/home/boittier/MDCM/nms_sampling/butadiene_geom.xyz.dir/butadiene_100.chk
%nproc=8
%mem=16000MB
#p B2PLYPD3/Def2QZVP 

butadiene

0 1
C  -3.838477   0.227433   0.029079
C  -2.719480  -0.509584   0.029337
C  -1.388792   0.073295  -0.011781
C  -0.261282  -0.645781   0.047482
H  -4.809214  -0.220669   0.059373
H  -3.781643   1.291222   0.069043
H  -2.831560  -1.610008  -0.043158
H  -1.328845   1.150228  -0.082230
H  -0.296716  -1.735777   0.124063
H   0.730537  -0.232719   0.055507
