%chk=/home/boittier/MDCM/nms_sampling/butadiene_geom.xyz.dir/butadiene_1664.chk
%nproc=8
%mem=16000MB
#p B2PLYPD3/Def2QZVP 

butadiene

0 1
C  -3.835093   0.212800  -0.015034
C  -2.694182  -0.473512   0.076506
C  -1.387120   0.074781   0.045878
C  -0.287095  -0.662651   0.009721
H  -4.814708  -0.290274  -0.111845
H  -3.875169   1.265650  -0.020632
H  -2.733564  -1.566555   0.209184
H  -1.271677   1.163273   0.049598
H  -0.393696  -1.733204  -0.073279
H   0.709132  -0.255405  -0.096820
