%chk=/home/boittier/MDCM/nms_sampling/butadiene_geom.xyz.dir/butadiene_1577.chk
%nproc=8
%mem=16000MB
#p B2PLYPD3/Def2QZVP 

butadiene

0 1
C  -3.820242   0.231206   0.053481
C  -2.701936  -0.503997  -0.001775
C  -1.397150   0.055087  -0.030467
C  -0.275815  -0.646135   0.062422
H  -4.819502  -0.223839   0.155473
H  -3.733548   1.322204   0.018777
H  -2.823241  -1.578658  -0.048406
H  -1.387418   1.091734  -0.097349
H  -0.346254  -1.723116   0.126194
H   0.630080  -0.153376   0.159847
