%chk=/home/boittier/MDCM/nms_sampling/butadiene_geom.xyz.dir/butadiene_2699.chk
%nproc=8
%mem=16000MB
#p B2PLYPD3/Def2QZVP 

butadiene

0 1
C  -3.858705   0.231984  -0.036458
C  -2.737118  -0.532988   0.113406
C  -1.370545   0.039939   0.067637
C  -0.260246  -0.623328  -0.045874
H  -4.920801  -0.097891  -0.265446
H  -3.762217   1.337180   0.041852
H  -2.825047  -1.591391   0.224935
H  -1.193606   1.150451   0.085762
H  -0.140221  -1.738951   0.099902
H   0.751414  -0.087680  -0.009026

