%chk=/home/boittier/MDCM/nms_sampling/butadiene_geom.xyz.dir/butadiene_2657.chk
%nproc=8
%mem=16000MB
#p B2PLYPD3/Def2QZVP 

butadiene

0 1
C  -3.797894   0.246586  -0.016935
C  -2.715779  -0.558384   0.082090
C  -1.400911   0.078696  -0.008245
C  -0.263674  -0.634767   0.030297
H  -4.895471  -0.087227   0.172440
H  -3.811457   1.370130  -0.023732
H  -2.891738  -1.679760   0.047638
H  -1.496387   1.111793   0.085751
H  -0.267201  -1.747323  -0.110851
H   0.677941  -0.205609   0.153261

