%chk=/home/boittier/MDCM/nms_sampling/butadiene_geom.xyz.dir/butadiene_2764.chk
%nproc=8
%mem=16000MB
#p B2PLYPD3/Def2QZVP 

butadiene

0 1
C  -3.845855   0.250454   0.044904
C  -2.741932  -0.537206   0.025138
C  -1.381903   0.015032  -0.007431
C  -0.217669  -0.602811   0.027565
H  -4.883942  -0.158042  -0.160804
H  -3.800145   1.349096   0.195668
H  -3.034609  -1.615102  -0.027183
H  -1.361275   1.096575  -0.200414
H  -0.209886  -1.765730   0.280694
H   0.721884  -0.076642   0.111876
