%chk=/home/boittier/MDCM/nms_sampling/butadiene_geom.xyz.dir/butadiene_2196.chk
%nproc=8
%mem=16000MB
#p B2PLYPD3/Def2QZVP 

butadiene

0 1
C  -3.850250   0.254756   0.072217
C  -2.729955  -0.537094  -0.024260
C  -1.390448   0.069549  -0.045065
C  -0.243191  -0.636647   0.066961
H  -4.840273  -0.260319   0.251381
H  -3.850323   1.299029  -0.081608
H  -2.797165  -1.648262  -0.076804
H  -1.283804   1.134680  -0.000756
H  -0.216664  -1.665334   0.205398
H   0.764851  -0.285232   0.198472
