%chk=/home/boittier/MDCM/nms_sampling/butadiene_geom.xyz.dir/butadiene_2525.chk
%nproc=8
%mem=16000MB
#p B2PLYPD3/Def2QZVP 

butadiene

0 1
C  -3.825221   0.267499   0.081400
C  -2.742028  -0.588422  -0.005258
C  -1.400468   0.073542  -0.062515
C  -0.270974  -0.633755   0.091611
H  -4.862904  -0.096084   0.060886
H  -3.594113   1.355142   0.089296
H  -2.681127  -1.647052  -0.285166
H  -1.315547   1.083927  -0.195176
H  -0.200386  -1.653740   0.254222
H   0.734327  -0.109295   0.065745

