%chk=/home/boittier/MDCM/nms_sampling/butadiene_geom.xyz.dir/butadiene_2852.chk
%nproc=8
%mem=16000MB
#p B2PLYPD3/Def2QZVP 

butadiene

0 1
C  -3.856485   0.219322  -0.021767
C  -2.774930  -0.509417   0.084746
C  -1.368403   0.047667   0.047402
C  -0.224357  -0.636591  -0.031037
H  -4.845991  -0.150168  -0.062673
H  -3.656774   1.367600  -0.132457
H  -2.834841  -1.647630   0.355334
H  -1.291166   1.148361   0.213379
H  -0.158326  -1.725761  -0.059404
H   0.673630  -0.065877   0.158993

