%chk=/home/boittier/MDCM/nms_sampling/butadiene_geom.xyz.dir/butadiene_2760.chk
%nproc=8
%mem=16000MB
#p B2PLYPD3/Def2QZVP 

butadiene

0 1
C  -3.794345   0.254116  -0.009593
C  -2.729717  -0.545007   0.099702
C  -1.426236   0.073882   0.066913
C  -0.272464  -0.658393  -0.024653
H  -4.714196  -0.171074  -0.318131
H  -3.634131   1.369303  -0.149046
H  -2.802344  -1.631921   0.270810
H  -1.432020   1.085613   0.108743
H  -0.155598  -1.714933  -0.062924
H   0.611952  -0.056697  -0.066647

