%chk=/home/boittier/MDCM/nms_sampling/butadiene_geom.xyz.dir/butadiene_585.chk
%nproc=8
%mem=16000MB
#p B2PLYPD3/Def2QZVP 

butadiene

0 1
C  -3.849078   0.227415  -0.001327
C  -2.726545  -0.504933   0.065565
C  -1.382909   0.059201   0.024183
C  -0.255466  -0.645470   0.011621
H  -4.831093  -0.235896   0.036543
H  -3.792077   1.317801  -0.069250
H  -2.804567  -1.584006   0.071771
H  -1.276310   1.138778   0.043368
H  -0.260211  -1.706813   0.014614
H   0.725693  -0.180517   0.055808
