%chk=/home/boittier/MDCM/nms_sampling/butadiene_geom.xyz.dir/butadiene_637.chk
%nproc=8
%mem=16000MB
#p B2PLYPD3/Def2QZVP 

butadiene

0 1
C  -3.845583   0.216729   0.001988
C  -2.719801  -0.490262   0.051076
C  -1.380723   0.087750   0.025403
C  -0.263163  -0.664980   0.013165
H  -4.820572  -0.281069   0.025067
H  -3.804895   1.298271  -0.035444
H  -2.753556  -1.573571   0.163537
H  -1.358847   1.152920   0.043603
H  -0.316686  -1.755689   0.007300
H   0.747799  -0.228882   0.062670
