%chk=/home/boittier/MDCM/nms_sampling/butadiene_geom.xyz.dir/butadiene_1788.chk
%nproc=8
%mem=16000MB
#p B2PLYPD3/Def2QZVP 

butadiene

0 1
C  -3.845136   0.210688   0.055538
C  -2.719007  -0.471983   0.011473
C  -1.375737   0.076772  -0.041366
C  -0.268365  -0.661530   0.067612
H  -4.743715  -0.325883  -0.012055
H  -3.872771   1.258675   0.040120
H  -2.861582  -1.549886   0.003060
H  -1.274890   1.184026   0.009424
H  -0.273091  -1.738290   0.133526
H   0.707706  -0.266339   0.032600

