%chk=/home/boittier/MDCM/nms_sampling/butadiene_geom.xyz.dir/butadiene_2694.chk
%nproc=8
%mem=16000MB
#p B2PLYPD3/Def2QZVP 

butadiene

0 1
C  -3.837253   0.253079   0.073278
C  -2.735620  -0.521768  -0.020245
C  -1.393953   0.033115  -0.054175
C  -0.265815  -0.630325   0.062534
H  -4.790443  -0.232404  -0.084961
H  -3.816194   1.320835   0.319663
H  -2.804117  -1.580066  -0.011461
H  -1.225782   1.143461  -0.207712
H  -0.018014  -1.761695   0.357257
H   0.652327  -0.122172   0.175369
