%chk=/home/boittier/MDCM/nms_sampling/butadiene_geom.xyz.dir/butadiene_1759.chk
%nproc=8
%mem=16000MB
#p B2PLYPD3/Def2QZVP 

butadiene

0 1
C  -3.830178   0.196831   0.024240
C  -2.692160  -0.465469   0.035284
C  -1.396732   0.093590  -0.026068
C  -0.289292  -0.676962   0.054638
H  -4.803425  -0.224639   0.004496
H  -3.815151   1.257097   0.156934
H  -2.747854  -1.545750  -0.028866
H  -1.311247   1.173407  -0.022677
H  -0.334936  -1.784466   0.164991
H   0.678864  -0.239062  -0.017698
