%chk=/home/boittier/MDCM/nms_sampling/butadiene_geom.xyz.dir/butadiene_2857.chk
%nproc=8
%mem=16000MB
#p B2PLYPD3/Def2QZVP 

butadiene

0 1
C  -3.807801   0.242052  -0.006744
C  -2.737755  -0.553303   0.072945
C  -1.407368   0.060915   0.107631
C  -0.273433  -0.626813  -0.023924
H  -4.827655  -0.029747  -0.127040
H  -3.666595   1.316020  -0.245110
H  -2.798571  -1.682196   0.152722
H  -1.258626   1.126604  -0.078653
H  -0.193003  -1.679039  -0.068516
H   0.663385  -0.160781  -0.096310

