%chk=/home/boittier/MDCM/nms_sampling/butadiene_geom.xyz.dir/butadiene_827.chk
%nproc=8
%mem=16000MB
#p B2PLYPD3/Def2QZVP 

butadiene

0 1
C  -3.850669   0.213781   0.003617
C  -2.719503  -0.491128   0.053573
C  -1.372491   0.082786   0.028718
C  -0.256734  -0.658455   0.021983
H  -4.814880  -0.268363  -0.046730
H  -3.841083   1.288718  -0.005123
H  -2.834668  -1.585267   0.141396
H  -1.313212   1.176122   0.004578
H  -0.349740  -1.765380  -0.001891
H   0.720669  -0.215427  -0.039296
