%chk=/home/boittier/MDCM/nms_sampling/butadiene_geom.xyz.dir/butadiene_949.chk
%nproc=8
%mem=16000MB
#p B2PLYPD3/Def2QZVP 

butadiene

0 1
C  -3.855843   0.223071   0.006480
C  -2.721891  -0.494471   0.048971
C  -1.381110   0.079994   0.020072
C  -0.254968  -0.661836   0.022900
H  -4.785772  -0.279735   0.057400
H  -3.830319   1.282529  -0.023837
H  -2.730387  -1.568769   0.081192
H  -1.320584   1.168913  -0.023399
H  -0.337748  -1.737845   0.006446
H   0.758951  -0.224462   0.066515
