%chk=/home/boittier/MDCM/nms_sampling/butadiene_geom.xyz.dir/butadiene_2135.chk
%nproc=8
%mem=16000MB
#p B2PLYPD3/Def2QZVP 

butadiene

0 1
C  -3.825690   0.252611  -0.028542
C  -2.709249  -0.531538   0.096513
C  -1.408357   0.070274   0.051520
C  -0.285878  -0.646543   0.003603
H  -4.724963  -0.289601  -0.046399
H  -3.739577   1.365991  -0.121299
H  -2.680437  -1.632762   0.279174
H  -1.341372   1.132817   0.047787
H  -0.338150  -1.753560  -0.295327
H   0.782066  -0.174356   0.048156
