%chk=/home/boittier/MDCM/nms_sampling/butadiene_geom.xyz.dir/butadiene_1149.chk
%nproc=8
%mem=16000MB
#p B2PLYPD3/Def2QZVP 

butadiene

0 1
C  -3.834104   0.205355   0.058282
C  -2.716291  -0.484644  -0.025588
C  -1.383794   0.100352  -0.015748
C  -0.286182  -0.666559   0.072237
H  -4.758398  -0.271669   0.165881
H  -3.797867   1.243309  -0.001326
H  -2.716764  -1.549600   0.064284
H  -1.220512   1.201342  -0.106731
H  -0.380567  -1.779775   0.061849
H   0.702411  -0.276564   0.077391
