%chk=/home/boittier/MDCM/nms_sampling/butadiene_geom.xyz.dir/butadiene_978.chk
%nproc=8
%mem=16000MB
#p B2PLYPD3/Def2QZVP 

butadiene

0 1
C  -3.862620   0.211643   0.034041
C  -2.731331  -0.487591  -0.003306
C  -1.373048   0.097653   0.011956
C  -0.255817  -0.671630   0.029734
H  -4.848338  -0.286816   0.127216
H  -3.889922   1.264263  -0.022360
H  -2.705343  -1.545517   0.147780
H  -1.214101   1.199578  -0.001212
H  -0.244526  -1.781494   0.138709
H   0.762651  -0.231535   0.100403

