%chk=/home/boittier/MDCM/nms_sampling/butadiene_geom.xyz.dir/butadiene_787.chk
%nproc=8
%mem=16000MB
#p B2PLYPD3/Def2QZVP 

butadiene

0 1
C  -3.851046   0.218084   0.017939
C  -2.719521  -0.489864   0.047041
C  -1.382053   0.080144   0.009949
C  -0.259435  -0.660773   0.031337
H  -4.822260  -0.270804   0.029336
H  -3.863966   1.282207  -0.079278
H  -2.747934  -1.562075   0.063040
H  -1.296174   1.174543   0.019184
H  -0.302929  -1.760525  -0.001597
H   0.762933  -0.231138   0.040415

