%chk=/home/boittier/MDCM/nms_sampling/butadiene_geom.xyz.dir/butadiene_617.chk
%nproc=8
%mem=16000MB
#p B2PLYPD3/Def2QZVP 

butadiene

0 1
C  -3.831536   0.226203   0.038175
C  -2.719913  -0.508455   0.006277
C  -1.389304   0.070579  -0.003616
C  -0.261803  -0.649595   0.052382
H  -4.822789  -0.206713   0.082959
H  -3.800382   1.311995  -0.000874
H  -2.798737  -1.594944   0.087810
H  -1.366777   1.138241  -0.048083
H  -0.317230  -1.709467   0.050358
H   0.723735  -0.221072   0.048796
