%chk=/home/boittier/MDCM/nms_sampling/butadiene_geom.xyz.dir/butadiene_384.chk
%nproc=8
%mem=16000MB
#p B2PLYPD3/Def2QZVP 

butadiene

0 1
C  -3.845610   0.223734   0.033010
C  -2.720414  -0.491461   0.011962
C  -1.374329   0.066959   0.006146
C  -0.261977  -0.654394   0.049150
H  -4.785335  -0.297381   0.049165
H  -3.881469   1.300159   0.058776
H  -2.799150  -1.567718   0.017767
H  -1.288470   1.159179  -0.115128
H  -0.331402  -1.760580   0.114311
H   0.695467  -0.181856  -0.015949
