%chk=/home/boittier/MDCM/nms_sampling/butadiene_geom.xyz.dir/butadiene_905.chk
%nproc=8
%mem=16000MB
#p B2PLYPD3/Def2QZVP 

butadiene

0 1
C  -3.849049   0.226314   0.026706
C  -2.719547  -0.504027   0.021492
C  -1.382161   0.058171  -0.003298
C  -0.254508  -0.649809   0.045250
H  -4.878854  -0.192366   0.101114
H  -3.795213   1.325353   0.032826
H  -2.804129  -1.589916   0.052311
H  -1.350017   1.125411  -0.077231
H  -0.238552  -1.710965   0.042003
H   0.711680  -0.151528   0.101236

