%chk=/home/boittier/MDCM/nms_sampling/butadiene_geom.xyz.dir/butadiene_1480.chk
%nproc=8
%mem=16000MB
#p B2PLYPD3/Def2QZVP 

butadiene

0 1
C  -3.857073   0.226733   0.014510
C  -2.733550  -0.503150   0.034611
C  -1.363529   0.046922  -0.001726
C  -0.242529  -0.640292   0.038088
H  -4.859249  -0.218596   0.015165
H  -3.777829   1.341561   0.121974
H  -2.852981  -1.630903   0.077719
H  -1.377588   1.135871  -0.032356
H  -0.308224  -1.690338   0.105329
H   0.717371  -0.136360   0.020348
