%chk=/home/boittier/MDCM/nms_sampling/butadiene_geom.xyz.dir/butadiene_2085.chk
%nproc=8
%mem=16000MB
#p B2PLYPD3/Def2QZVP 

butadiene

0 1
C  -3.853192   0.251624   0.058338
C  -2.729394  -0.549757  -0.018203
C  -1.391381   0.063876  -0.025084
C  -0.254354  -0.643103   0.059276
H  -4.843877  -0.128589   0.154417
H  -3.626605   1.366804   0.109532
H  -2.670045  -1.605398  -0.169775
H  -1.381434   1.062957  -0.111259
H  -0.217193  -1.716314   0.388092
H   0.675517  -0.088707   0.021132

