%chk=/home/boittier/MDCM/nms_sampling/butadiene_geom.xyz.dir/butadiene_553.chk
%nproc=8
%mem=16000MB
#p B2PLYPD3/Def2QZVP 

butadiene

0 1
C  -3.840872   0.226948   0.031995
C  -2.718111  -0.496056   0.026468
C  -1.388924   0.055174  -0.008219
C  -0.255346  -0.651301   0.041528
H  -4.830977  -0.213846   0.046940
H  -3.837980   1.303240  -0.044780
H  -2.819287  -1.576585   0.075012
H  -1.350668   1.128223   0.050090
H  -0.256647  -1.737394   0.068960
H   0.714376  -0.142031   0.053828
