%chk=/home/boittier/MDCM/nms_sampling/butadiene_geom.xyz.dir/butadiene_1895.chk
%nproc=8
%mem=16000MB
#p B2PLYPD3/Def2QZVP 

butadiene

0 1
C  -3.819517   0.242471   0.031086
C  -2.724688  -0.535124   0.003005
C  -1.392776   0.058587   0.000652
C  -0.265187  -0.637228   0.046834
H  -4.827607  -0.184558   0.052881
H  -3.717037   1.323177   0.161604
H  -2.869069  -1.610626   0.043657
H  -1.364300   1.144170  -0.123199
H  -0.296855  -1.755300   0.195857
H   0.684088  -0.098685   0.003242
