%chk=/home/boittier/MDCM/nms_sampling/butadiene_geom.xyz.dir/butadiene_1101.chk
%nproc=8
%mem=16000MB
#p B2PLYPD3/Def2QZVP 

butadiene

0 1
C  -3.825661   0.230317   0.057866
C  -2.726177  -0.527230  -0.030851
C  -1.390105   0.051965  -0.020023
C  -0.259322  -0.630440   0.056061
H  -4.860064  -0.124660   0.174077
H  -3.763321   1.352115   0.039678
H  -2.834636  -1.638212   0.091653
H  -1.320440   1.145583  -0.051800
H  -0.315475  -1.694938   0.187028
H   0.700453  -0.173519   0.147590
