%chk=/home/boittier/MDCM/nms_sampling/butadiene_geom.xyz.dir/butadiene_2070.chk
%nproc=8
%mem=16000MB
#p B2PLYPD3/Def2QZVP 

butadiene

0 1
C  -3.846140   0.240911   0.052672
C  -2.743027  -0.522144  -0.042905
C  -1.369654   0.024468  -0.016312
C  -0.239015  -0.624555   0.074067
H  -4.937712  -0.110864   0.093376
H  -3.631875   1.300446   0.343166
H  -2.881636  -1.593513   0.000195
H  -1.421579   1.015744  -0.268752
H  -0.226354  -1.689387   0.328100
H   0.645374  -0.008868  -0.028041

