%chk=/home/boittier/MDCM/nms_sampling/butadiene_geom.xyz.dir/butadiene_154.chk
%nproc=8
%mem=16000MB
#p B2PLYPD3/Def2QZVP 

butadiene

0 1
C  -3.845091   0.217173   0.001079
C  -2.716211  -0.495938   0.059124
C  -1.378618   0.091608   0.032461
C  -0.261309  -0.665815   0.024044
H  -4.801789  -0.249902   0.018284
H  -3.840142   1.287357  -0.057639
H  -2.790770  -1.596426   0.040537
H  -1.334864   1.159556  -0.005467
H  -0.344754  -1.756564   0.005441
H   0.701207  -0.213054  -0.067797
