%chk=/home/boittier/MDCM/nms_sampling/butadiene_geom.xyz.dir/butadiene_2116.chk
%nproc=8
%mem=16000MB
#p B2PLYPD3/Def2QZVP 

butadiene

0 1
C  -3.837447   0.214705  -0.031693
C  -2.715306  -0.471854   0.103822
C  -1.366542   0.074077   0.031012
C  -0.282449  -0.666904   0.008860
H  -4.720338  -0.351789  -0.006403
H  -4.024854   1.238143   0.086165
H  -2.826299  -1.562573  -0.075479
H  -1.195092   1.219576  -0.036394
H  -0.384922  -1.749984   0.061773
H   0.748796  -0.189646  -0.063999
