%chk=/home/boittier/MDCM/nms_sampling/butadiene_geom.xyz.dir/butadiene_1923.chk
%nproc=8
%mem=16000MB
#p B2PLYPD3/Def2QZVP 

butadiene

0 1
C  -3.846386   0.239142   0.057603
C  -2.721755  -0.488652  -0.015005
C  -1.380815  -0.004607   0.013135
C  -0.252729  -0.624705   0.037279
H  -4.882838  -0.103643   0.020238
H  -3.789036   1.255862   0.154293
H  -2.926309  -1.641118  -0.127513
H  -1.337989   1.044159  -0.336586
H  -0.103586  -1.634455   0.348172
H   0.631801  -0.036665   0.078405
