%chk=/home/boittier/MDCM/nms_sampling/butadiene_geom.xyz.dir/butadiene_2569.chk
%nproc=8
%mem=16000MB
#p B2PLYPD3/Def2QZVP 

butadiene

0 1
C  -3.829551   0.218551  -0.003014
C  -2.699304  -0.481196   0.072756
C  -1.387099   0.086892  -0.005498
C  -0.283502  -0.681208   0.047799
H  -4.813615  -0.267002   0.030893
H  -3.867227   1.311020   0.196286
H  -2.574582  -1.590934  -0.204641
H  -1.364156   1.185924  -0.160286
H  -0.411334  -1.783579   0.127418
H   0.596779  -0.173634  -0.065668
