%chk=/home/boittier/MDCM/nms_sampling/butadiene_geom.xyz.dir/butadiene_1633.chk
%nproc=8
%mem=16000MB
#p B2PLYPD3/Def2QZVP 

butadiene

0 1
C  -3.833876   0.236142   0.047092
C  -2.718478  -0.516998   0.012476
C  -1.396101   0.072613  -0.004230
C  -0.260389  -0.648693   0.050140
H  -4.793354  -0.231427   0.033817
H  -3.723243   1.334902  -0.008664
H  -2.784517  -1.645413  -0.086002
H  -1.447513   1.146683  -0.074833
H  -0.326517  -1.730987   0.199209
H   0.771558  -0.208419  -0.029882
