%chk=/home/boittier/MDCM/nms_sampling/butadiene_geom.xyz.dir/butadiene_2071.chk
%nproc=8
%mem=16000MB
#p B2PLYPD3/Def2QZVP 

butadiene

0 1
C  -3.827556   0.211313   0.086756
C  -2.675178  -0.486067  -0.034371
C  -1.400813   0.094714   0.004650
C  -0.312695  -0.681246   0.070849
H  -4.858678  -0.211496  -0.089390
H  -3.853395   1.313987   0.072277
H  -2.596874  -1.526676  -0.105688
H  -1.293289   1.108651  -0.337815
H  -0.316514  -1.691904   0.252810
H   0.695110  -0.255917  -0.083878

