%chk=/home/boittier/MDCM/nms_sampling/butadiene_geom.xyz.dir/butadiene_64.chk
%nproc=8
%mem=16000MB
#p B2PLYPD3/Def2QZVP 

butadiene

0 1
C  -3.831066   0.239957  -0.000487
C  -2.714223  -0.516435   0.045577
C  -1.400081   0.057494   0.028290
C  -0.269446  -0.644407   0.022421
H  -4.810248  -0.200107   0.117709
H  -3.773894   1.312145  -0.039448
H  -2.758000  -1.602643   0.071531
H  -1.323627   1.129235   0.015376
H  -0.240536  -1.719372   0.034870
H   0.677669  -0.180726   0.000038

