%chk=/home/boittier/MDCM/nms_sampling/butadiene_geom.xyz.dir/butadiene_484.chk
%nproc=8
%mem=16000MB
#p B2PLYPD3/Def2QZVP 

butadiene

0 1
C  -3.833860   0.230383   0.043273
C  -2.702672  -0.499824   0.012156
C  -1.392795   0.067321  -0.009094
C  -0.272449  -0.655395   0.049108
H  -4.809729  -0.244121   0.005811
H  -3.846774   1.294157   0.014191
H  -2.776266  -1.593474   0.067200
H  -1.344645   1.140622  -0.042059
H  -0.324620  -1.712729   0.095385
H   0.706290  -0.211427   0.045743
