%chk=/home/boittier/MDCM/nms_sampling/butadiene_geom.xyz.dir/butadiene_2575.chk
%nproc=8
%mem=16000MB
#p B2PLYPD3/Def2QZVP 

butadiene

0 1
C  -3.876436   0.217872  -0.027899
C  -2.720740  -0.481287   0.121888
C  -1.348037   0.062169   0.095752
C  -0.250373  -0.658958  -0.045516
H  -4.833132  -0.270443  -0.251453
H  -3.831123   1.263475  -0.170266
H  -2.837408  -1.539855   0.142599
H  -1.382929   1.099431  -0.036403
H  -0.340939  -1.734624  -0.075594
H   0.732010  -0.119964  -0.000084
