%chk=/home/boittier/MDCM/nms_sampling/butadiene_geom.xyz.dir/butadiene_321.chk
%nproc=8
%mem=16000MB
#p B2PLYPD3/Def2QZVP 

butadiene

0 1
C  -3.851013   0.211203   0.016547
C  -2.727808  -0.491593   0.033282
C  -1.372805   0.087430  -0.001285
C  -0.258020  -0.664038   0.040631
H  -4.824930  -0.253506   0.095511
H  -3.790368   1.284440   0.019517
H  -2.794052  -1.559887   0.052569
H  -1.285995   1.154047   0.007067
H  -0.309004  -1.755284   0.062059
H   0.697773  -0.185750   0.036677
