%chk=/home/boittier/MDCM/nms_sampling/butadiene_geom.xyz.dir/butadiene_891.chk
%nproc=8
%mem=16000MB
#p B2PLYPD3/Def2QZVP 

butadiene

0 1
C  -3.832445   0.232057   0.030423
C  -2.719740  -0.510402   0.012160
C  -1.396444   0.059366  -0.006915
C  -0.266465  -0.650529   0.050499
H  -4.816933  -0.222717   0.150360
H  -3.707611   1.324549   0.018335
H  -2.787211  -1.569605   0.021714
H  -1.350936   1.137347  -0.045374
H  -0.260337  -1.713764   0.089494
H   0.696098  -0.140242   0.065455

