%chk=/home/boittier/MDCM/nms_sampling/butadiene_geom.xyz.dir/butadiene_2334.chk
%nproc=8
%mem=16000MB
#p B2PLYPD3/Def2QZVP 

butadiene

0 1
C  -3.889299   0.193939  -0.019752
C  -2.712950  -0.447709   0.111305
C  -1.374802   0.072271   0.045094
C  -0.260305  -0.661792  -0.022147
H  -4.802600  -0.304282  -0.143962
H  -3.848725   1.211612  -0.195666
H  -2.722838  -1.516616   0.130527
H  -1.133997   1.205994   0.247170
H  -0.289872  -1.742113   0.019857
H   0.835472  -0.303839  -0.051415

