%chk=/home/boittier/MDCM/nms_sampling/butadiene_geom.xyz.dir/butadiene_2272.chk
%nproc=8
%mem=16000MB
#p B2PLYPD3/Def2QZVP 

butadiene

0 1
C  -3.846281   0.164353  -0.059923
C  -2.708506  -0.451849   0.095605
C  -1.359352   0.122010   0.083604
C  -0.285863  -0.694599  -0.019640
H  -4.875542  -0.214291   0.016342
H  -3.703363   1.254642   0.058381
H  -2.723805  -1.494460   0.181289
H  -1.332596   1.151143   0.055511
H  -0.511760  -1.749728   0.018725
H   0.695605  -0.207390  -0.164578
