%chk=/home/boittier/MDCM/nms_sampling/butadiene_geom.xyz.dir/butadiene_1506.chk
%nproc=8
%mem=16000MB
#p B2PLYPD3/Def2QZVP 

butadiene

0 1
C  -3.823097   0.239770   0.039562
C  -2.719678  -0.531477   0.027107
C  -1.402900   0.053563  -0.029243
C  -0.263186  -0.621998   0.048095
H  -4.819804  -0.161600   0.089831
H  -3.693867   1.300752  -0.011722
H  -2.865592  -1.611582  -0.027431
H  -1.367631   1.128937  -0.000879
H  -0.302942  -1.714803   0.105026
H   0.752556  -0.249363   0.152868
