%chk=/home/boittier/MDCM/nms_sampling/butadiene_geom.xyz.dir/butadiene_2496.chk
%nproc=8
%mem=16000MB
#p B2PLYPD3/Def2QZVP 

butadiene

0 1
C  -3.873267   0.166560   0.071116
C  -2.741032  -0.456196   0.006056
C  -1.358991   0.111646  -0.021311
C  -0.258555  -0.675695   0.053250
H  -4.848307  -0.264389   0.009998
H  -3.895485   1.335422  -0.172142
H  -2.728302  -1.546539   0.068990
H  -1.055632   1.216049  -0.065820
H  -0.284475  -1.757397  -0.040004
H   0.786155  -0.297488   0.231428
