%chk=/home/boittier/MDCM/nms_sampling/butadiene_geom.xyz.dir/butadiene_1623.chk
%nproc=8
%mem=16000MB
#p B2PLYPD3/Def2QZVP 

butadiene

0 1
C  -3.868911   0.202153   0.023171
C  -2.710240  -0.470750   0.022880
C  -1.364351   0.083759  -0.020822
C  -0.265074  -0.665742   0.043968
H  -4.827620  -0.278399   0.133554
H  -3.812439   1.285398   0.045559
H  -2.731163  -1.590560   0.091073
H  -1.249236   1.170515   0.046984
H  -0.395770  -1.773088   0.081857
H   0.688644  -0.205262   0.131429

