%chk=/home/boittier/MDCM/nms_sampling/butadiene_geom.xyz.dir/butadiene_2787.chk
%nproc=8
%mem=16000MB
#p B2PLYPD3/Def2QZVP 

butadiene

0 1
C  -3.811019   0.248409  -0.042184
C  -2.714352  -0.545322   0.086513
C  -1.424176   0.044052   0.125935
C  -0.269305  -0.616371  -0.066240
H  -4.824472  -0.131937  -0.082552
H  -3.668730   1.379611  -0.157275
H  -2.795931  -1.670174   0.285438
H  -1.368617   1.160012   0.065326
H  -0.273310  -1.673147   0.064572
H   0.774974  -0.267007  -0.042651

