%chk=/home/boittier/MDCM/nms_sampling/butadiene_geom.xyz.dir/butadiene_452.chk
%nproc=8
%mem=16000MB
#p B2PLYPD3/Def2QZVP 

butadiene

0 1
C  -3.844272   0.233264   0.022224
C  -2.732569  -0.513678   0.025358
C  -1.387003   0.067791   0.010528
C  -0.250452  -0.650001   0.032768
H  -4.829824  -0.241614   0.041294
H  -3.779123   1.312122   0.044771
H  -2.776345  -1.585231   0.030101
H  -1.306089   1.153804  -0.032709
H  -0.261293  -1.746217   0.163646
H   0.716853  -0.154160  -0.011521
