%chk=/home/boittier/MDCM/nms_sampling/butadiene_geom.xyz.dir/butadiene_1973.chk
%nproc=8
%mem=16000MB
#p B2PLYPD3/Def2QZVP 

butadiene

0 1
C  -3.846159   0.217972  -0.015054
C  -2.727270  -0.464925   0.072238
C  -1.358375   0.065226   0.098116
C  -0.273432  -0.656505  -0.033820
H  -4.662704  -0.476715  -0.179668
H  -3.907163   1.302155  -0.159103
H  -2.820729  -1.544022   0.219046
H  -1.250964   1.215883   0.113884
H  -0.369829  -1.764179   0.116381
H   0.667755  -0.261371  -0.206733

