%chk=/home/boittier/MDCM/nms_sampling/butadiene_geom.xyz.dir/butadiene_2819.chk
%nproc=8
%mem=16000MB
#p B2PLYPD3/Def2QZVP 

butadiene

0 1
C  -3.869856   0.179755  -0.046564
C  -2.737173  -0.456041   0.140290
C  -1.363650   0.110553   0.070164
C  -0.264113  -0.680117  -0.013360
H  -4.793854  -0.271580  -0.142270
H  -3.897121   1.205417  -0.078095
H  -2.721513  -1.523973  -0.036080
H  -1.071438   1.245647   0.004947
H  -0.285948  -1.769666  -0.068158
H   0.771124  -0.289204  -0.171476
