%chk=/home/boittier/MDCM/nms_sampling/butadiene_geom.xyz.dir/butadiene_1682.chk
%nproc=8
%mem=16000MB
#p B2PLYPD3/Def2QZVP 

butadiene

0 1
C  -3.847459   0.245006  -0.020669
C  -2.737315  -0.534083   0.080948
C  -1.384439   0.061025   0.037393
C  -0.258565  -0.645657   0.000312
H  -4.816267  -0.189176  -0.044531
H  -3.729645   1.309344   0.027241
H  -2.733948  -1.597253   0.097749
H  -1.297437   1.172197   0.077638
H  -0.200583  -1.688727   0.084436
H   0.713958  -0.143527  -0.068216
