%chk=/home/boittier/MDCM/nms_sampling/butadiene_geom.xyz.dir/butadiene_1481.chk
%nproc=8
%mem=16000MB
#p B2PLYPD3/Def2QZVP 

butadiene

0 1
C  -3.856469   0.234793   0.052341
C  -2.740084  -0.512150  -0.002258
C  -1.380851   0.044780  -0.002760
C  -0.232549  -0.631256   0.047522
H  -4.852305  -0.232902   0.096943
H  -3.706786   1.335861  -0.090073
H  -2.842729  -1.584695   0.060735
H  -1.340295   1.091918  -0.048824
H  -0.248056  -1.711743   0.074149
H   0.705675  -0.159455   0.108129

