%chk=/home/boittier/MDCM/nms_sampling/butadiene_geom.xyz.dir/butadiene_618.chk
%nproc=8
%mem=16000MB
#p B2PLYPD3/Def2QZVP 

butadiene

0 1
C  -3.850319   0.217129   0.047949
C  -2.713946  -0.486106  -0.002518
C  -1.379855   0.070707  -0.001787
C  -0.265027  -0.660578   0.050208
H  -4.853471  -0.261580   0.096177
H  -3.836314   1.303107  -0.040282
H  -2.757328  -1.563923   0.058723
H  -1.289544   1.151892  -0.068945
H  -0.277060  -1.741961   0.084632
H   0.704580  -0.187871   0.077046
