%chk=/home/boittier/MDCM/nms_sampling/butadiene_geom.xyz.dir/butadiene_1712.chk
%nproc=8
%mem=16000MB
#p B2PLYPD3/Def2QZVP 

butadiene

0 1
C  -3.817331   0.237967   0.002484
C  -2.722083  -0.520713   0.061694
C  -1.410068   0.050731   0.033032
C  -0.269395  -0.638180  -0.003033
H  -4.812391  -0.197251  -0.104940
H  -3.736895   1.325506   0.006974
H  -2.809283  -1.596156   0.153425
H  -1.240574   1.161778   0.022435
H  -0.214553  -1.709746   0.094577
H   0.644313  -0.161431   0.049071
