%chk=/home/boittier/MDCM/nms_sampling/butadiene_geom.xyz.dir/butadiene_459.chk
%nproc=8
%mem=16000MB
#p B2PLYPD3/Def2QZVP 

butadiene

0 1
C  -3.846752   0.229076   0.012465
C  -2.722596  -0.501725   0.050329
C  -1.377999   0.057606   0.026163
C  -0.260690  -0.651447   0.026396
H  -4.800003  -0.252748  -0.027538
H  -3.818411   1.326206  -0.028590
H  -2.800132  -1.596470   0.050776
H  -1.278553   1.144682  -0.048517
H  -0.286927  -1.713438   0.025607
H   0.667269  -0.131938  -0.029096
