%chk=/home/boittier/MDCM/nms_sampling/butadiene_geom.xyz.dir/butadiene_2878.chk
%nproc=8
%mem=16000MB
#p B2PLYPD3/Def2QZVP 

butadiene

0 1
C  -3.848737   0.216822   0.076027
C  -2.678090  -0.508202  -0.009346
C  -1.376454   0.121505  -0.081850
C  -0.289154  -0.671348   0.080180
H  -4.815566  -0.278566   0.207326
H  -3.987221   1.278799   0.066664
H  -2.709737  -1.583590  -0.153241
H  -1.290298   1.266943  -0.121838
H  -0.455821  -1.812405   0.169218
H   0.736835  -0.373123   0.360591

