%chk=/home/boittier/MDCM/nms_sampling/butadiene_geom.xyz.dir/butadiene_550.chk
%nproc=8
%mem=16000MB
#p B2PLYPD3/Def2QZVP 

butadiene

0 1
C  -3.832856   0.230909   0.029735
C  -2.725515  -0.519434   0.016509
C  -1.386105   0.068094  -0.000981
C  -0.264178  -0.648618   0.042634
H  -4.818322  -0.184224   0.048437
H  -3.732811   1.307047   0.078093
H  -2.802857  -1.596069   0.005763
H  -1.349113   1.152888  -0.045101
H  -0.292762  -1.720830   0.193273
H   0.684888  -0.153441  -0.016155
