%chk=/home/boittier/MDCM/nms_sampling/butadiene_geom.xyz.dir/butadiene_2791.chk
%nproc=8
%mem=16000MB
#p B2PLYPD3/Def2QZVP 

butadiene

0 1
C  -3.813611   0.209601   0.040547
C  -2.696668  -0.474922  -0.028659
C  -1.389011   0.099815  -0.048120
C  -0.302473  -0.682347   0.082817
H  -4.857736  -0.289074   0.335298
H  -3.941220   1.282243   0.066820
H  -2.713528  -1.584316   0.132308
H  -1.282004   1.150754   0.104164
H  -0.305915  -1.757326   0.090531
H   0.692876  -0.220293   0.094280
