%chk=/home/boittier/MDCM/nms_sampling/butadiene_geom.xyz.dir/butadiene_66.chk
%nproc=8
%mem=16000MB
#p B2PLYPD3/Def2QZVP 

butadiene

0 1
C  -3.846124   0.216324   0.008952
C  -2.718977  -0.481371   0.061117
C  -1.383750   0.065794   0.024784
C  -0.266244  -0.659086   0.021175
H  -4.789094  -0.250344  -0.050905
H  -3.796658   1.294349  -0.042590
H  -2.771156  -1.575463   0.037086
H  -1.306518   1.142911  -0.011056
H  -0.268033  -1.731092   0.037208
H   0.696239  -0.184067  -0.032889

