%chk=/home/boittier/MDCM/nms_sampling/butadiene_geom.xyz.dir/butadiene_1670.chk
%nproc=8
%mem=16000MB
#p B2PLYPD3/Def2QZVP 

butadiene

0 1
C  -3.826484   0.230419   0.070503
C  -2.716163  -0.529123  -0.017672
C  -1.391137   0.069743  -0.043721
C  -0.269109  -0.639569   0.073728
H  -4.841953  -0.186311   0.063339
H  -3.752658   1.355323   0.007696
H  -2.876230  -1.623603   0.096269
H  -1.342186   1.154453  -0.042786
H  -0.310224  -1.715639   0.061761
H   0.746441  -0.191873   0.163371
