%chk=/home/boittier/MDCM/nms_sampling/butadiene_geom.xyz.dir/butadiene_1957.chk
%nproc=8
%mem=16000MB
#p B2PLYPD3/Def2QZVP 

butadiene

0 1
C  -3.870349   0.184899  -0.044887
C  -2.720806  -0.454596   0.120834
C  -1.359148   0.102836   0.033263
C  -0.252428  -0.698649   0.003190
H  -4.867667  -0.237761   0.006934
H  -3.857638   1.285667   0.096217
H  -2.675010  -1.539783  -0.092422
H  -1.404090   1.245998  -0.033116
H  -0.322454  -1.754068   0.030700
H   0.720311  -0.197281  -0.046489
