%chk=/home/boittier/MDCM/nms_sampling/butadiene_geom.xyz.dir/butadiene_305.chk
%nproc=8
%mem=16000MB
#p B2PLYPD3/Def2QZVP 

butadiene

0 1
C  -3.846186   0.231215   0.000469
C  -2.732197  -0.511412   0.053725
C  -1.389143   0.058420   0.028315
C  -0.249076  -0.644095   0.009403
H  -4.841853  -0.207824   0.040799
H  -3.781017   1.293433  -0.060563
H  -2.796939  -1.586894   0.142688
H  -1.260757   1.162286   0.057485
H  -0.235494  -1.714472   0.021740
H   0.710863  -0.170934   0.061160

