%chk=/home/boittier/MDCM/nms_sampling/butadiene_geom.xyz.dir/butadiene_2187.chk
%nproc=8
%mem=16000MB
#p B2PLYPD3/Def2QZVP 

butadiene

0 1
C  -3.811901   0.248925   0.062198
C  -2.699059  -0.508029   0.009633
C  -1.424275   0.045345  -0.051715
C  -0.267960  -0.636126   0.059378
H  -4.782806  -0.280747   0.047982
H  -3.812792   1.354608   0.144414
H  -2.796154  -1.583648  -0.213943
H  -1.427060   1.060611  -0.149431
H  -0.249404  -1.695839   0.325657
H   0.713323  -0.277254   0.165231
