%chk=/home/boittier/MDCM/nms_sampling/butadiene_geom.xyz.dir/butadiene_286.chk
%nproc=8
%mem=16000MB
#p B2PLYPD3/Def2QZVP 

butadiene

0 1
C  -3.828646   0.234800   0.007084
C  -2.719959  -0.518183   0.056613
C  -1.399436   0.069595   0.014479
C  -0.258038  -0.647977   0.030266
H  -4.837815  -0.211461  -0.037536
H  -3.771957   1.315909  -0.002793
H  -2.793581  -1.586377   0.075723
H  -1.374190   1.131327   0.035425
H  -0.280532  -1.719278   0.031491
H   0.723220  -0.206681  -0.063037
