%chk=/home/boittier/MDCM/nms_sampling/butadiene_geom.xyz.dir/butadiene_2750.chk
%nproc=8
%mem=16000MB
#p B2PLYPD3/Def2QZVP 

butadiene

0 1
C  -3.819558   0.242922   0.052711
C  -2.732285  -0.538756  -0.004824
C  -1.377266   0.100553  -0.055129
C  -0.255194  -0.658403   0.087200
H  -4.807975  -0.236183   0.091607
H  -3.776974   1.294754   0.095125
H  -2.843091  -1.674847   0.163715
H  -1.479993   1.156287  -0.050083
H  -0.383804  -1.710547  -0.083228
H   0.681390  -0.211092   0.181169

