%chk=/home/boittier/MDCM/nms_sampling/butadiene_geom.xyz.dir/butadiene_2140.chk
%nproc=8
%mem=16000MB
#p B2PLYPD3/Def2QZVP 

butadiene

0 1
C  -3.852817   0.193741  -0.029941
C  -2.719801  -0.485914   0.056800
C  -1.362183   0.147326   0.094837
C  -0.284604  -0.701172  -0.033985
H  -4.874769  -0.328067   0.058415
H  -3.802683   1.281451  -0.190801
H  -2.701876  -1.536988   0.410385
H  -1.293946   1.234720   0.151597
H  -0.263374  -1.754294  -0.079387
H   0.746602  -0.307751   0.023185

