%chk=/home/boittier/MDCM/nms_sampling/butadiene_geom.xyz.dir/butadiene_2695.chk
%nproc=8
%mem=16000MB
#p B2PLYPD3/Def2QZVP 

butadiene

0 1
C  -3.823881   0.259552  -0.049531
C  -2.714753  -0.563892   0.110131
C  -1.421591   0.029856   0.105191
C  -0.241393  -0.613641  -0.005909
H  -4.877804  -0.049918  -0.045185
H  -3.785778   1.410050  -0.129882
H  -2.728228  -1.628572   0.000067
H  -1.428546   1.157257   0.006601
H  -0.310756  -1.691541  -0.049341
H   0.762064  -0.197226  -0.385051
