%chk=/home/boittier/MDCM/nms_sampling/butadiene_geom.xyz.dir/butadiene_475.chk
%nproc=8
%mem=16000MB
#p B2PLYPD3/Def2QZVP 

butadiene

0 1
C  -3.825710   0.233396   0.001612
C  -2.717450  -0.507333   0.049187
C  -1.394852   0.049855   0.035088
C  -0.264608  -0.641487   0.008635
H  -4.801753  -0.213026   0.091672
H  -3.807586   1.317182  -0.105641
H  -2.807589  -1.590279   0.102963
H  -1.340524   1.125926   0.054573
H  -0.315197  -1.701004   0.040459
H   0.695071  -0.177863   0.043663

