%chk=/home/boittier/MDCM/nms_sampling/butadiene_geom.xyz.dir/butadiene_2564.chk
%nproc=8
%mem=16000MB
#p B2PLYPD3/Def2QZVP 

butadiene

0 1
C  -3.839505   0.200209   0.090957
C  -2.675107  -0.454860  -0.010431
C  -1.378303   0.090991  -0.086024
C  -0.301154  -0.680747   0.095412
H  -4.688605  -0.338778   0.160975
H  -3.935095   1.209512  -0.069493
H  -2.920992  -1.551385  -0.154064
H  -1.300279   1.213366  -0.057415
H  -0.414892  -1.727359   0.083207
H   0.745288  -0.265161   0.271712

