%chk=/home/boittier/MDCM/nms_sampling/butadiene_geom.xyz.dir/butadiene_275.chk
%nproc=8
%mem=16000MB
#p B2PLYPD3/Def2QZVP 

butadiene

0 1
C  -3.840153   0.235252   0.005836
C  -2.719317  -0.510044   0.042225
C  -1.384016   0.057448   0.037266
C  -0.255856  -0.645902   0.012035
H  -4.816178  -0.235049   0.005788
H  -3.853131   1.332301  -0.022964
H  -2.847387  -1.606763   0.120437
H  -1.346987   1.132542   0.010376
H  -0.251479  -1.730586   0.090999
H   0.691301  -0.161687  -0.025740
