%chk=/home/boittier/MDCM/nms_sampling/butadiene_geom.xyz.dir/butadiene_372.chk
%nproc=8
%mem=16000MB
#p B2PLYPD3/Def2QZVP 

butadiene

0 1
C  -3.844917   0.222955   0.000422
C  -2.723548  -0.493544   0.052118
C  -1.379537   0.052901   0.046084
C  -0.260949  -0.650733   0.015986
H  -4.816915  -0.207188  -0.047750
H  -3.778590   1.321140  -0.020347
H  -2.805856  -1.601336   0.124134
H  -1.334817   1.135078  -0.020682
H  -0.247146  -1.728879   0.026255
H   0.670561  -0.120586  -0.098786

