%chk=/home/boittier/MDCM/nms_sampling/butadiene_geom.xyz.dir/butadiene_2443.chk
%nproc=8
%mem=16000MB
#p B2PLYPD3/Def2QZVP 

butadiene

0 1
C  -3.861402   0.270466  -0.021844
C  -2.733098  -0.557696   0.079865
C  -1.369368   0.039099   0.078651
C  -0.226258  -0.623852  -0.030926
H  -4.859691  -0.178051   0.080216
H  -3.764115   1.295000  -0.367511
H  -2.836138  -1.569741   0.216360
H  -1.529147   1.072917   0.278372
H  -0.308132  -1.715817  -0.037098
H   0.759620  -0.105136  -0.023683
