%chk=/home/boittier/MDCM/nms_sampling/butadiene_geom.xyz.dir/butadiene_737.chk
%nproc=8
%mem=16000MB
#p B2PLYPD3/Def2QZVP 

butadiene

0 1
C  -3.838305   0.214706   0.005895
C  -2.709257  -0.483302   0.051658
C  -1.378574   0.076305   0.039314
C  -0.276729  -0.663030   0.010039
H  -4.782975  -0.281184  -0.028253
H  -3.838825   1.295799  -0.072320
H  -2.781884  -1.572743   0.103969
H  -1.326021   1.155584   0.041069
H  -0.367726  -1.724970   0.075195
H   0.710380  -0.214056  -0.055500

