%chk=/home/boittier/MDCM/nms_sampling/butadiene_geom.xyz.dir/butadiene_22.chk
%nproc=8
%mem=16000MB
#p B2PLYPD3/Def2QZVP 

butadiene

0 1
C  -3.847134   0.233648   0.039207
C  -2.725192  -0.498763   0.014040
C  -1.384991   0.056247  -0.005574
C  -0.254227  -0.647490   0.048374
H  -4.788878  -0.276102   0.022195
H  -3.810352   1.316521   0.001006
H  -2.764113  -1.596594   0.081249
H  -1.330227   1.143196  -0.029722
H  -0.272649  -1.738212   0.071994
H   0.697586  -0.185723   0.037674
