%chk=/home/boittier/MDCM/nms_sampling/butadiene_geom.xyz.dir/butadiene_703.chk
%nproc=8
%mem=16000MB
#p B2PLYPD3/Def2QZVP 

butadiene

0 1
C  -3.836590   0.229505   0.040719
C  -2.719094  -0.509293   0.014918
C  -1.386001   0.064039  -0.010535
C  -0.260378  -0.644866   0.050860
H  -4.823697  -0.234248   0.014130
H  -3.797064   1.326194   0.040936
H  -2.771942  -1.586361   0.035243
H  -1.347553   1.134826  -0.064431
H  -0.363714  -1.746366   0.105904
H   0.715225  -0.187294   0.039845
