%chk=/home/boittier/MDCM/nms_sampling/butadiene_geom.xyz.dir/butadiene_1801.chk
%nproc=8
%mem=16000MB
#p B2PLYPD3/Def2QZVP 

butadiene

0 1
C  -3.849004   0.234123   0.002499
C  -2.747113  -0.518946   0.066877
C  -1.375685   0.054666   0.065002
C  -0.240257  -0.636780   0.001378
H  -4.781530  -0.245242  -0.069344
H  -3.778930   1.324689  -0.158549
H  -2.838007  -1.579706   0.009407
H  -1.274263   1.153545  -0.011769
H  -0.290945  -1.702030   0.067578
H   0.709952  -0.167753  -0.146444

