%chk=/home/boittier/MDCM/nms_sampling/butadiene_geom.xyz.dir/butadiene_989.chk
%nproc=8
%mem=16000MB
#p B2PLYPD3/Def2QZVP 

butadiene

0 1
C  -3.845330   0.237075   0.027467
C  -2.738002  -0.519381   0.036652
C  -1.376599   0.047555   0.029214
C  -0.240178  -0.631125   0.023319
H  -4.863982  -0.217958  -0.076069
H  -3.848057   1.302783  -0.036545
H  -2.840415  -1.599578   0.063427
H  -1.279350   1.157972  -0.100332
H  -0.310130  -1.715121   0.062343
H   0.736095  -0.167808   0.006091
