%chk=/home/boittier/MDCM/nms_sampling/butadiene_geom.xyz.dir/butadiene_759.chk
%nproc=8
%mem=16000MB
#p B2PLYPD3/Def2QZVP 

butadiene

0 1
C  -3.835660   0.208413   0.033070
C  -2.705447  -0.481281   0.017261
C  -1.386711   0.082384   0.007632
C  -0.274838  -0.667606   0.037249
H  -4.828990  -0.257259   0.069665
H  -3.841156   1.296632   0.009699
H  -2.796142  -1.556749  -0.011925
H  -1.297024   1.170515  -0.086711
H  -0.322376  -1.758253   0.152343
H   0.691617  -0.199003   0.040396
