%chk=/home/boittier/MDCM/nms_sampling/butadiene_geom.xyz.dir/butadiene_2108.chk
%nproc=8
%mem=16000MB
#p B2PLYPD3/Def2QZVP 

butadiene

0 1
C  -3.869100   0.195970  -0.016675
C  -2.738678  -0.478061   0.103334
C  -1.365435   0.085949   0.021267
C  -0.247287  -0.659788   0.027233
H  -4.849909  -0.255766  -0.241046
H  -3.803354   1.271878   0.078358
H  -2.873799  -1.488988   0.058316
H  -1.182219   1.154594   0.062997
H  -0.158851  -1.748736  -0.008587
H   0.698124  -0.247052  -0.249279
