%chk=/home/boittier/MDCM/nms_sampling/butadiene_geom.xyz.dir/butadiene_837.chk
%nproc=8
%mem=16000MB
#p B2PLYPD3/Def2QZVP 

butadiene

0 1
C  -3.841170   0.214992   0.026484
C  -2.709414  -0.501865   0.029793
C  -1.380974   0.086310  -0.001296
C  -0.277445  -0.663321   0.035292
H  -4.840653  -0.226496  -0.002145
H  -3.792600   1.308612   0.076720
H  -2.776934  -1.577095   0.034226
H  -1.294907   1.190277  -0.059005
H  -0.320239  -1.736967   0.140232
H   0.712408  -0.199735   0.050006

