%chk=/home/boittier/MDCM/nms_sampling/butadiene_geom.xyz.dir/butadiene_121.chk
%nproc=8
%mem=16000MB
#p B2PLYPD3/Def2QZVP 

butadiene

0 1
C  -3.845386   0.215829   0.037670
C  -2.721728  -0.481983   0.013660
C  -1.380724   0.076019  -0.008603
C  -0.261245  -0.662081   0.039298
H  -4.772223  -0.306601   0.064181
H  -3.845104   1.288414   0.005268
H  -2.820522  -1.565572   0.090891
H  -1.290971   1.174379  -0.030162
H  -0.294439  -1.760689   0.089224
H   0.714965  -0.200014   0.142038
