%chk=/home/boittier/MDCM/nms_sampling/butadiene_geom.xyz.dir/butadiene_259.chk
%nproc=8
%mem=16000MB
#p B2PLYPD3/Def2QZVP 

butadiene

0 1
C  -3.845614   0.234958   0.023311
C  -2.733294  -0.512867   0.037468
C  -1.384210   0.061334   0.011020
C  -0.250351  -0.648497   0.029781
H  -4.828923  -0.222167  -0.049391
H  -3.800421   1.293746   0.023295
H  -2.782468  -1.573829   0.076217
H  -1.304794   1.141899  -0.038707
H  -0.239040  -1.729408   0.086041
H   0.708065  -0.146517   0.014007
