%chk=/home/boittier/MDCM/nms_sampling/butadiene_geom.xyz.dir/butadiene_310.chk
%nproc=8
%mem=16000MB
#p B2PLYPD3/Def2QZVP 

butadiene

0 1
C  -3.848250   0.218876   0.030499
C  -2.724463  -0.494154   0.016542
C  -1.372877   0.075040  -0.004919
C  -0.258484  -0.654678   0.047025
H  -4.802153  -0.269644   0.092852
H  -3.866872   1.291931   0.033602
H  -2.798644  -1.563028   0.062765
H  -1.290730   1.159071  -0.070864
H  -0.336145  -1.768383   0.053646
H   0.723495  -0.197741   0.093455

