%chk=/home/boittier/MDCM/nms_sampling/butadiene_geom.xyz.dir/butadiene_1873.chk
%nproc=8
%mem=16000MB
#p B2PLYPD3/Def2QZVP 

butadiene

0 1
C  -3.824525   0.237978   0.049234
C  -2.723088  -0.523755  -0.000074
C  -1.398042   0.050633  -0.013937
C  -0.267827  -0.626341   0.054116
H  -4.834419  -0.214583   0.083449
H  -3.742684   1.351184   0.073821
H  -2.785514  -1.608662  -0.099398
H  -1.334082   1.119656  -0.112547
H  -0.325000  -1.709284   0.259503
H   0.788502  -0.225325   0.017314
