%chk=/home/boittier/MDCM/nms_sampling/butadiene_geom.xyz.dir/butadiene_1825.chk
%nproc=8
%mem=16000MB
#p B2PLYPD3/Def2QZVP 

butadiene

0 1
C  -3.840134   0.229864   0.006180
C  -2.725811  -0.515176   0.067301
C  -1.382738   0.070689   0.015960
C  -0.264878  -0.655559   0.014829
H  -4.844665  -0.157580  -0.016975
H  -3.747973   1.289576  -0.157565
H  -2.712982  -1.612512   0.159637
H  -1.345139   1.146397   0.154285
H  -0.303964  -1.708200  -0.058825
H   0.700304  -0.137107   0.050316
