%chk=/home/boittier/MDCM/nms_sampling/butadiene_geom.xyz.dir/butadiene_1999.chk
%nproc=8
%mem=16000MB
#p B2PLYPD3/Def2QZVP 

butadiene

0 1
C  -3.834986   0.204242  -0.047885
C  -2.673239  -0.465259   0.076056
C  -1.382210   0.112368   0.096940
C  -0.306192  -0.688755  -0.049966
H  -4.717858  -0.380795   0.056075
H  -3.940797   1.245895  -0.140036
H  -2.879627  -1.546581   0.400705
H  -1.303626   1.157507   0.198593
H  -0.414333  -1.749238  -0.022198
H   0.775319  -0.264866   0.036529
