%chk=/home/boittier/MDCM/nms_sampling/butadiene_geom.xyz.dir/butadiene_1590.chk
%nproc=8
%mem=16000MB
#p B2PLYPD3/Def2QZVP 

butadiene

0 1
C  -3.833427   0.238454   0.061966
C  -2.709965  -0.530285  -0.032717
C  -1.395837   0.069915  -0.021606
C  -0.274795  -0.646933   0.061751
H  -4.885227  -0.171429   0.158420
H  -3.737409   1.313467   0.021336
H  -2.739206  -1.595456   0.107902
H  -1.306207   1.142613  -0.058309
H  -0.263375  -1.707601   0.143300
H   0.690544  -0.181429   0.140593

