%chk=/home/boittier/MDCM/nms_sampling/butadiene_geom.xyz.dir/butadiene_799.chk
%nproc=8
%mem=16000MB
#p B2PLYPD3/Def2QZVP 

butadiene

0 1
C  -3.841298   0.214591   0.044627
C  -2.718978  -0.500760   0.005592
C  -1.383669   0.084343   0.004392
C  -0.264357  -0.661328   0.052577
H  -4.853554  -0.225460   0.013632
H  -3.788295   1.316408   0.034189
H  -2.795686  -1.583522   0.002792
H  -1.300246   1.168542  -0.137008
H  -0.303094  -1.736475   0.123412
H   0.722306  -0.188631  -0.019304

