%chk=/home/boittier/MDCM/nms_sampling/butadiene_geom.xyz.dir/butadiene_1295.chk
%nproc=8
%mem=16000MB
#p B2PLYPD3/Def2QZVP 

butadiene

0 1
C  -3.828653   0.233619   0.040926
C  -2.717587  -0.531141  -0.001123
C  -1.387630   0.082661   0.002182
C  -0.269869  -0.642566   0.039863
H  -4.831137  -0.203636   0.131664
H  -3.799097   1.320730   0.013118
H  -2.833213  -1.593147   0.049359
H  -1.374937   1.164513  -0.120282
H  -0.282369  -1.765273   0.118462
H   0.751748  -0.253609   0.155051

