%chk=/home/boittier/MDCM/nms_sampling/butadiene_geom.xyz.dir/butadiene_312.chk
%nproc=8
%mem=16000MB
#p B2PLYPD3/Def2QZVP 

butadiene

0 1
C  -3.849921   0.208450   0.031691
C  -2.722316  -0.482780   0.018085
C  -1.384387   0.083279   0.014080
C  -0.259097  -0.665716   0.033650
H  -4.820190  -0.230744  -0.002946
H  -3.809530   1.291364   0.025807
H  -2.756730  -1.557598   0.061225
H  -1.312901   1.144138  -0.071918
H  -0.272234  -1.744271   0.136846
H   0.742542  -0.216028   0.004541

