%chk=/home/boittier/MDCM/nms_sampling/butadiene_geom.xyz.dir/butadiene_1081.chk
%nproc=8
%mem=16000MB
#p B2PLYPD3/Def2QZVP 

butadiene

0 1
C  -3.841489   0.242510   0.044772
C  -2.711196  -0.511223  -0.015590
C  -1.388320   0.052209  -0.036337
C  -0.260323  -0.648901   0.075509
H  -4.787331  -0.214535   0.207780
H  -3.850492   1.307792   0.089606
H  -2.838955  -1.620996   0.036362
H  -1.370502   1.105987  -0.002339
H  -0.252464  -1.696664   0.143380
H   0.696576  -0.131945   0.046252

