%chk=/home/boittier/MDCM/nms_sampling/butadiene_geom.xyz.dir/butadiene_2423.chk
%nproc=8
%mem=16000MB
#p B2PLYPD3/Def2QZVP 

butadiene

0 1
C  -3.819435   0.262581   0.032129
C  -2.711105  -0.578028  -0.004329
C  -1.420273   0.053853   0.026997
C  -0.254608  -0.614841   0.064182
H  -4.856812  -0.034410   0.057722
H  -3.793580   1.374648   0.126856
H  -2.757614  -1.633577   0.006774
H  -1.399970   1.084295  -0.275992
H  -0.321814  -1.732732   0.070676
H   0.796135  -0.197199  -0.132848

