%chk=/home/boittier/MDCM/nms_sampling/butadiene_geom.xyz.dir/butadiene_1772.chk
%nproc=8
%mem=16000MB
#p B2PLYPD3/Def2QZVP 

butadiene

0 1
C  -3.842675   0.235643   0.041584
C  -2.721685  -0.515031  -0.005107
C  -1.395403   0.068627  -0.019724
C  -0.259277  -0.653498   0.060751
H  -4.822792  -0.208544   0.088565
H  -3.697381   1.313848   0.165020
H  -2.741512  -1.611243  -0.054259
H  -1.390408   1.140149  -0.068655
H  -0.257756  -1.704059   0.295749
H   0.731402  -0.174702  -0.054061

