%chk=/home/boittier/MDCM/nms_sampling/butadiene_geom.xyz.dir/butadiene_2006.chk
%nproc=8
%mem=16000MB
#p B2PLYPD3/Def2QZVP 

butadiene

0 1
C  -3.795251   0.251852  -0.041905
C  -2.718695  -0.530897   0.081758
C  -1.405802   0.033574   0.071877
C  -0.265724  -0.631039  -0.001219
H  -4.722839  -0.177871   0.118722
H  -3.756748   1.361516  -0.240671
H  -2.952123  -1.674424   0.267423
H  -1.432248   1.106086   0.290208
H  -0.345523  -1.728843  -0.145544
H   0.615213  -0.026632  -0.196766

