%chk=/home/boittier/MDCM/nms_sampling/butadiene_geom.xyz.dir/butadiene_2697.chk
%nproc=8
%mem=16000MB
#p B2PLYPD3/Def2QZVP 

butadiene

0 1
C  -3.841660   0.259035   0.100497
C  -2.738409  -0.526905  -0.047390
C  -1.357738   0.020179  -0.048663
C  -0.254536  -0.617571   0.094206
H  -4.751589  -0.323351   0.023617
H  -3.897879   1.368874   0.070173
H  -2.887165  -1.608853  -0.198612
H  -1.287708   1.122498  -0.112364
H  -0.295767  -1.745704   0.411742
H   0.621745  -0.084107  -0.115904
