%chk=/home/boittier/MDCM/nms_sampling/butadiene_geom.xyz.dir/butadiene_1477.chk
%nproc=8
%mem=16000MB
#p B2PLYPD3/Def2QZVP 

butadiene

0 1
C  -3.815180   0.243002   0.040964
C  -2.724105  -0.521275   0.020565
C  -1.393611   0.060678   0.011039
C  -0.272272  -0.640375   0.045662
H  -4.754421  -0.242021   0.043120
H  -3.721547   1.319056  -0.087278
H  -2.866482  -1.654660  -0.070177
H  -1.386936   1.134432  -0.067731
H  -0.290436  -1.738706   0.122171
H   0.669439  -0.150052  -0.053561
