%chk=/home/boittier/MDCM/nms_sampling/butadiene_geom.xyz.dir/butadiene_1320.chk
%nproc=8
%mem=16000MB
#p B2PLYPD3/Def2QZVP 

butadiene

0 1
C  -3.860956   0.212209   0.042916
C  -2.712946  -0.484941  -0.011497
C  -1.367548   0.084137  -0.012351
C  -0.270479  -0.670345   0.061343
H  -4.751722  -0.288465   0.090784
H  -3.840460   1.288492   0.151981
H  -2.802129  -1.531428  -0.008491
H  -1.254527   1.152137  -0.096186
H  -0.314786  -1.764313   0.249832
H   0.678649  -0.151322  -0.046077
