%chk=/home/boittier/MDCM/nms_sampling/butadiene_geom.xyz.dir/butadiene_1883.chk
%nproc=8
%mem=16000MB
#p B2PLYPD3/Def2QZVP 

butadiene

0 1
C  -3.831217   0.218595   0.034971
C  -2.702692  -0.488118   0.013188
C  -1.389822   0.065581  -0.020397
C  -0.280764  -0.655592   0.057027
H  -4.790754  -0.248847   0.067228
H  -3.815645   1.281160   0.084192
H  -2.742306  -1.567265   0.074541
H  -1.305481   1.180418  -0.054264
H  -0.426877  -1.759412   0.062385
H   0.713185  -0.181485   0.084706

