%chk=/home/boittier/MDCM/nms_sampling/butadiene_geom.xyz.dir/butadiene_1450.chk
%nproc=8
%mem=16000MB
#p B2PLYPD3/Def2QZVP 

butadiene

0 1
C  -3.862879   0.226406   0.003134
C  -2.731626  -0.498407   0.054880
C  -1.367067   0.071200   0.012471
C  -0.254903  -0.652146   0.007987
H  -4.812019  -0.296729   0.046595
H  -3.797831   1.278618  -0.065779
H  -2.779592  -1.584557   0.164592
H  -1.243438   1.139452   0.135091
H  -0.306712  -1.735715   0.044516
H   0.724423  -0.172782   0.116956
