%chk=/home/boittier/MDCM/nms_sampling/butadiene_geom.xyz.dir/butadiene_2073.chk
%nproc=8
%mem=16000MB
#p B2PLYPD3/Def2QZVP 

butadiene

0 1
C  -3.825999   0.203015   0.096626
C  -2.709349  -0.510347  -0.020753
C  -1.384740   0.141251  -0.046613
C  -0.283312  -0.689489   0.078468
H  -4.897295  -0.162592  -0.144731
H  -3.801086   1.284863   0.184654
H  -2.702826  -1.574311  -0.142624
H  -1.312369   1.139740  -0.337369
H  -0.312422  -1.765336   0.267938
H   0.631865  -0.247567   0.121564

