%chk=/home/boittier/MDCM/nms_sampling/butadiene_geom.xyz.dir/butadiene_1136.chk
%nproc=8
%mem=16000MB
#p B2PLYPD3/Def2QZVP 

butadiene

0 1
C  -3.839048   0.206111   0.040347
C  -2.702189  -0.489412   0.005444
C  -1.371056   0.100283  -0.019434
C  -0.291578  -0.679403   0.061275
H  -4.821681  -0.242967   0.143538
H  -3.849340   1.294964   0.031822
H  -2.783399  -1.571098   0.054335
H  -1.320537   1.213364  -0.107288
H  -0.309679  -1.743513   0.003645
H   0.697613  -0.203916   0.157151

