%chk=/home/boittier/MDCM/nms_sampling/butadiene_geom.xyz.dir/butadiene_1543.chk
%nproc=8
%mem=16000MB
#p B2PLYPD3/Def2QZVP 

butadiene

0 1
C  -3.840301   0.213014  -0.007312
C  -2.700014  -0.499313   0.068722
C  -1.381658   0.085150   0.063533
C  -0.272991  -0.659445  -0.002140
H  -4.830675  -0.230605   0.034150
H  -3.777360   1.299449  -0.227554
H  -2.810530  -1.546222   0.112276
H  -1.388135   1.153978   0.066710
H  -0.436178  -1.728727  -0.053146
H   0.754636  -0.234599  -0.044053
