%chk=/home/boittier/MDCM/nms_sampling/butadiene_geom.xyz.dir/butadiene_2586.chk
%nproc=8
%mem=16000MB
#p B2PLYPD3/Def2QZVP 

butadiene

0 1
C  -3.825679   0.202919  -0.004504
C  -2.698330  -0.476628   0.071742
C  -1.394192   0.096801   0.082532
C  -0.304938  -0.674601  -0.024739
H  -4.715854  -0.360303  -0.135842
H  -3.756785   1.344962  -0.113269
H  -2.683235  -1.530843   0.125182
H  -1.224837   1.174478  -0.085233
H  -0.457369  -1.737785   0.042023
H   0.711903  -0.250151  -0.002446

