%chk=/home/boittier/MDCM/nms_sampling/butadiene_geom.xyz.dir/butadiene_2656.chk
%nproc=8
%mem=16000MB
#p B2PLYPD3/Def2QZVP 

butadiene

0 1
C  -3.825511   0.190660  -0.036858
C  -2.683262  -0.459719   0.081383
C  -1.395117   0.139950   0.100820
C  -0.320895  -0.703740  -0.016303
H  -4.768538  -0.281108  -0.000941
H  -3.845919   1.248764   0.001552
H  -2.685562  -1.534507   0.001084
H  -1.309958   1.128232  -0.144157
H  -0.220202  -1.813605   0.083952
H   0.690205  -0.313019  -0.189393

