%chk=/home/boittier/MDCM/nms_sampling/butadiene_geom.xyz.dir/butadiene_196.chk
%nproc=8
%mem=16000MB
#p B2PLYPD3/Def2QZVP 

butadiene

0 1
C  -3.847753   0.216758   0.004978
C  -2.714219  -0.492530   0.048182
C  -1.380686   0.086908   0.040325
C  -0.272563  -0.664001   0.022222
H  -4.795716  -0.265348  -0.011062
H  -3.797208   1.282765  -0.014455
H  -2.737233  -1.585538   0.071020
H  -1.280207   1.160174  -0.066412
H  -0.349214  -1.738914   0.028656
H   0.725124  -0.217312  -0.069881

