%chk=/home/boittier/MDCM/nms_sampling/butadiene_geom.xyz.dir/butadiene_1049.chk
%nproc=8
%mem=16000MB
#p B2PLYPD3/Def2QZVP 

butadiene

0 1
C  -3.860480   0.229402   0.047007
C  -2.726024  -0.506911   0.003113
C  -1.370505   0.077225  -0.021557
C  -0.248508  -0.648135   0.047155
H  -4.804088  -0.286564  -0.018211
H  -3.874554   1.313288   0.161709
H  -2.793294  -1.619599   0.045409
H  -1.291285   1.162699  -0.104501
H  -0.317417  -1.755391   0.220349
H   0.734783  -0.243912   0.102291
