%chk=/home/boittier/MDCM/nms_sampling/butadiene_geom.xyz.dir/butadiene_1519.chk
%nproc=8
%mem=16000MB
#p B2PLYPD3/Def2QZVP 

butadiene

0 1
C  -3.836806   0.222716   0.031331
C  -2.722014  -0.518550   0.003125
C  -1.371189   0.082039  -0.016215
C  -0.280401  -0.653860   0.060084
H  -4.853263  -0.193443   0.252285
H  -3.717822   1.302421   0.025666
H  -2.785677  -1.595406  -0.007264
H  -1.279397   1.129617  -0.060300
H  -0.344030  -1.727648   0.076990
H   0.681335  -0.126656   0.107814
