%chk=/home/boittier/MDCM/nms_sampling/butadiene_geom.xyz.dir/butadiene_409.chk
%nproc=8
%mem=16000MB
#p B2PLYPD3/Def2QZVP 

butadiene

0 1
C  -3.836654   0.228077   0.042427
C  -2.729766  -0.501246   0.003228
C  -1.388414   0.061336  -0.000937
C  -0.256137  -0.650592   0.054295
H  -4.807950  -0.250133   0.095627
H  -3.773651   1.321354  -0.010011
H  -2.821944  -1.606780   0.039577
H  -1.306377   1.152405  -0.099962
H  -0.240905  -1.730820   0.058780
H   0.672928  -0.150480   0.053075
