%chk=/home/boittier/MDCM/nms_sampling/butadiene_geom.xyz.dir/butadiene_2729.chk
%nproc=8
%mem=16000MB
#p B2PLYPD3/Def2QZVP 

butadiene

0 1
C  -3.835162   0.186971   0.077410
C  -2.705184  -0.475535  -0.007187
C  -1.367562   0.120825  -0.094142
C  -0.286266  -0.675324   0.120612
H  -4.780153  -0.304320   0.157890
H  -3.794090   1.341631   0.076793
H  -2.755166  -1.555556  -0.145109
H  -1.415929   1.173086  -0.107320
H  -0.521074  -1.785865   0.011346
H   0.765552  -0.336536   0.147230
