%chk=/home/boittier/MDCM/nms_sampling/butadiene_geom.xyz.dir/butadiene_1512.chk
%nproc=8
%mem=16000MB
#p B2PLYPD3/Def2QZVP 

butadiene

0 1
C  -3.844907   0.213315   0.036429
C  -2.713778  -0.494489   0.003245
C  -1.368272   0.081569  -0.010368
C  -0.265248  -0.651860   0.039566
H  -4.826639  -0.271005   0.162319
H  -3.801986   1.327387  -0.037738
H  -2.809780  -1.597902   0.088085
H  -1.359495   1.141697   0.064415
H  -0.430471  -1.756666   0.145528
H   0.708775  -0.240323   0.113697
