%chk=/home/boittier/MDCM/nms_sampling/butadiene_geom.xyz.dir/butadiene_2637.chk
%nproc=8
%mem=16000MB
#p B2PLYPD3/Def2QZVP 

butadiene

0 1
C  -3.863640   0.258745  -0.034331
C  -2.734212  -0.531482   0.099389
C  -1.384447   0.038365   0.028751
C  -0.245961  -0.649854  -0.004318
H  -4.803958  -0.191740   0.002047
H  -3.779821   1.353630   0.061112
H  -2.744869  -1.631828   0.040459
H  -1.248677   1.084920   0.096455
H  -0.101987  -1.677832   0.094896
H   0.615265   0.030119  -0.019322

