%chk=/home/boittier/MDCM/nms_sampling/butadiene_geom.xyz.dir/butadiene_1306.chk
%nproc=8
%mem=16000MB
#p B2PLYPD3/Def2QZVP 

butadiene

0 1
C  -3.864705   0.198909   0.058740
C  -2.714839  -0.468698   0.007820
C  -1.359387   0.089117  -0.029132
C  -0.259250  -0.667584   0.074728
H  -4.788787  -0.271703  -0.020112
H  -3.859018   1.280305   0.089653
H  -2.802195  -1.559675  -0.071925
H  -1.344993   1.127383  -0.188477
H  -0.394028  -1.753471   0.093707
H   0.731721  -0.243227   0.035995
