%chk=/home/boittier/MDCM/nms_sampling/butadiene_geom.xyz.dir/butadiene_230.chk
%nproc=8
%mem=16000MB
#p B2PLYPD3/Def2QZVP 

butadiene

0 1
C  -3.830473   0.236923   0.037716
C  -2.710886  -0.509769   0.014369
C  -1.397588   0.056162   0.002354
C  -0.266510  -0.645664   0.044726
H  -4.814280  -0.214191   0.042313
H  -3.781718   1.303326   0.038497
H  -2.808712  -1.588527  -0.031400
H  -1.372379   1.114617  -0.106464
H  -0.276233  -1.724246   0.165449
H   0.703944  -0.168148   0.007536

