%chk=/home/boittier/MDCM/nms_sampling/butadiene_geom.xyz.dir/butadiene_2045.chk
%nproc=8
%mem=16000MB
#p B2PLYPD3/Def2QZVP 

butadiene

0 1
C  -3.880963   0.220362   0.061032
C  -2.727521  -0.496296  -0.041638
C  -1.352858   0.071533  -0.039039
C  -0.247930  -0.672513   0.089016
H  -4.837409  -0.207386   0.390484
H  -3.738534   1.273842   0.051739
H  -2.877656  -1.637372  -0.126187
H  -1.266076   1.130882  -0.151029
H  -0.234058  -1.666715   0.177746
H   0.626004  -0.000984   0.132625

