%chk=/home/boittier/MDCM/nms_sampling/butadiene_geom.xyz.dir/butadiene_128.chk
%nproc=8
%mem=16000MB
#p B2PLYPD3/Def2QZVP 

butadiene

0 1
C  -3.849479   0.229910   0.022862
C  -2.724869  -0.511609   0.021279
C  -1.382595   0.067526  -0.005600
C  -0.250453  -0.651835   0.046481
H  -4.858731  -0.219795   0.132412
H  -3.829734   1.305954   0.018621
H  -2.782078  -1.572556   0.048981
H  -1.298260   1.153773   0.001172
H  -0.270035  -1.721135   0.077243
H   0.715526  -0.171907   0.045061
