%chk=/home/boittier/MDCM/nms_sampling/butadiene_geom.xyz.dir/butadiene_1371.chk
%nproc=8
%mem=16000MB
#p B2PLYPD3/Def2QZVP 

butadiene

0 1
C  -3.828095   0.234104   0.023453
C  -2.731475  -0.512238   0.043589
C  -1.397666   0.051023   0.024456
C  -0.260527  -0.646022   0.027862
H  -4.815688  -0.178347  -0.046235
H  -3.696935   1.336622  -0.054766
H  -2.748167  -1.600700  -0.024936
H  -1.381476   1.156472  -0.029652
H  -0.217526  -1.736714   0.128861
H   0.666733  -0.120791  -0.094022
