%chk=/home/boittier/MDCM/nms_sampling/butadiene_geom.xyz.dir/butadiene_481.chk
%nproc=8
%mem=16000MB
#p B2PLYPD3/Def2QZVP 

butadiene

0 1
C  -3.849919   0.224371   0.036471
C  -2.720567  -0.485882   0.013576
C  -1.378353   0.069164  -0.004848
C  -0.258506  -0.661810   0.057677
H  -4.778432  -0.292488   0.082591
H  -3.842911   1.301197   0.022474
H  -2.785006  -1.590536  -0.017958
H  -1.369630   1.144034  -0.087090
H  -0.283549  -1.731432   0.089079
H   0.730059  -0.187819  -0.009805
