%chk=/home/boittier/MDCM/nms_sampling/butadiene_geom.xyz.dir/butadiene_1206.chk
%nproc=8
%mem=16000MB
#p B2PLYPD3/Def2QZVP 

butadiene

0 1
C  -3.835940   0.241191   0.035287
C  -2.734241  -0.505135   0.008683
C  -1.397367   0.028924  -0.002229
C  -0.242058  -0.630454   0.058234
H  -4.819860  -0.228386   0.167512
H  -3.818256   1.309736  -0.043432
H  -2.805556  -1.564855  -0.011289
H  -1.326656   1.126835  -0.052667
H  -0.213097  -1.692040   0.057468
H   0.703932  -0.188846   0.009948

