%chk=/home/boittier/MDCM/nms_sampling/butadiene_geom.xyz.dir/butadiene_2721.chk
%nproc=8
%mem=16000MB
#p B2PLYPD3/Def2QZVP 

butadiene

0 1
C  -3.797263   0.268812   0.089790
C  -2.709349  -0.552912  -0.043806
C  -1.398535   0.046665  -0.018504
C  -0.292920  -0.639825   0.076009
H  -4.783556  -0.205228  -0.104979
H  -3.736906   1.378459   0.155108
H  -2.848527  -1.664879  -0.022354
H  -1.484844   1.083047  -0.249495
H  -0.260191  -1.695207   0.302979
H   0.676318  -0.031532  -0.056615
