%chk=/home/boittier/MDCM/nms_sampling/butadiene_geom.xyz.dir/butadiene_330.chk
%nproc=8
%mem=16000MB
#p B2PLYPD3/Def2QZVP 

butadiene

0 1
C  -3.820688   0.238170   0.041843
C  -2.720360  -0.521833   0.019703
C  -1.401291   0.065316   0.000472
C  -0.264111  -0.647275   0.044953
H  -4.797621  -0.218428  -0.018379
H  -3.791763   1.344877   0.019252
H  -2.815343  -1.609614  -0.013541
H  -1.358622   1.139725  -0.108577
H  -0.270997  -1.717330   0.127340
H   0.706611  -0.173964   0.016486
