%chk=/home/boittier/MDCM/nms_sampling/butadiene_geom.xyz.dir/butadiene_2597.chk
%nproc=8
%mem=16000MB
#p B2PLYPD3/Def2QZVP 

butadiene

0 1
C  -3.866138   0.212912   0.086031
C  -2.723817  -0.441839  -0.042830
C  -1.359267   0.097970  -0.074077
C  -0.256061  -0.695367   0.104935
H  -4.738340  -0.526266   0.083499
H  -3.925221   1.269299   0.065245
H  -2.776925  -1.518025   0.200238
H  -1.378612   1.103003  -0.037384
H  -0.247771  -1.732831  -0.036525
H   0.709889  -0.248138   0.198965
