%chk=/home/boittier/MDCM/nms_sampling/butadiene_geom.xyz.dir/butadiene_1435.chk
%nproc=8
%mem=16000MB
#p B2PLYPD3/Def2QZVP 

butadiene

0 1
C  -3.827211   0.242739  -0.018132
C  -2.724402  -0.540901   0.080731
C  -1.386070   0.060038   0.035128
C  -0.259702  -0.636321   0.013724
H  -4.850549  -0.202219  -0.000471
H  -3.784200   1.349477   0.020316
H  -2.838446  -1.601085   0.008919
H  -1.333987   1.161344   0.004128
H  -0.356798  -1.715104   0.046958
H   0.724164  -0.138180  -0.089534

