%chk=/home/boittier/MDCM/nms_sampling/butadiene_geom.xyz.dir/butadiene_467.chk
%nproc=8
%mem=16000MB
#p B2PLYPD3/Def2QZVP 

butadiene

0 1
C  -3.834675   0.240679   0.032981
C  -2.722368  -0.515189   0.016373
C  -1.393001   0.065721  -0.007439
C  -0.261266  -0.652080   0.056141
H  -4.773634  -0.257192   0.045859
H  -3.803147   1.297792   0.065633
H  -2.780265  -1.591632  -0.000118
H  -1.339090   1.160021  -0.051704
H  -0.283241  -1.716624   0.129140
H   0.709302  -0.176957  -0.048965
