%chk=/home/boittier/MDCM/nms_sampling/butadiene_geom.xyz.dir/butadiene_2513.chk
%nproc=8
%mem=16000MB
#p B2PLYPD3/Def2QZVP 

butadiene

0 1
C  -3.872290   0.221894   0.089594
C  -2.708854  -0.459287  -0.021138
C  -1.363203   0.079979  -0.080463
C  -0.241988  -0.680774   0.117833
H  -4.713197  -0.423455   0.046302
H  -4.072363   1.276712   0.141313
H  -2.696613  -1.567132  -0.175578
H  -1.310171   1.149710  -0.201680
H  -0.458127  -1.733187   0.132966
H   0.663172  -0.239141   0.054376

