%chk=/home/boittier/MDCM/nms_sampling/butadiene_geom.xyz.dir/butadiene_927.chk
%nproc=8
%mem=16000MB
#p B2PLYPD3/Def2QZVP 

butadiene

0 1
C  -3.842567   0.226662   0.017005
C  -2.734819  -0.499899   0.020208
C  -1.384162   0.056694   0.015381
C  -0.244939  -0.645797   0.032272
H  -4.817130  -0.248789   0.084896
H  -3.788254   1.326277   0.030105
H  -2.817690  -1.589281   0.122222
H  -1.354368   1.132772  -0.017990
H  -0.291252  -1.708993   0.084459
H   0.739849  -0.179311   0.026532
