%chk=/home/boittier/MDCM/nms_sampling/butadiene_geom.xyz.dir/butadiene_998.chk
%nproc=8
%mem=16000MB
#p B2PLYPD3/Def2QZVP 

butadiene

0 1
C  -3.832049   0.223162   0.044573
C  -2.731287  -0.513818  -0.001152
C  -1.395989   0.063484   0.001955
C  -0.253994  -0.646982   0.036607
H  -4.853744  -0.159418   0.147732
H  -3.638785   1.358313  -0.049640
H  -2.782240  -1.619784   0.064572
H  -1.372621   1.142796  -0.098462
H  -0.281148  -1.711426   0.086383
H   0.680429  -0.141583   0.205526
