%chk=/home/boittier/MDCM/nms_sampling/butadiene_geom.xyz.dir/butadiene_427.chk
%nproc=8
%mem=16000MB
#p B2PLYPD3/Def2QZVP 

butadiene

0 1
C  -3.829926   0.227369   0.036551
C  -2.724227  -0.508752   0.022969
C  -1.391050   0.073275  -0.006740
C  -0.260324  -0.649057   0.045436
H  -4.809896  -0.239838   0.056967
H  -3.779433   1.303919  -0.040272
H  -2.833487  -1.610148   0.033471
H  -1.334943   1.153250  -0.024019
H  -0.310658  -1.713122   0.057599
H   0.725331  -0.220036   0.073115
