%chk=/home/boittier/MDCM/nms_sampling/butadiene_geom.xyz.dir/butadiene_1258.chk
%nproc=8
%mem=16000MB
#p B2PLYPD3/Def2QZVP 

butadiene

0 1
C  -3.840296   0.240659  -0.019434
C  -2.720461  -0.505442   0.072099
C  -1.395344   0.031140   0.077078
C  -0.249150  -0.632860  -0.016281
H  -4.815575  -0.214471  -0.026086
H  -3.778343   1.313302  -0.037309
H  -2.908427  -1.593930   0.073789
H  -1.367195   1.068717  -0.068298
H  -0.210152  -1.682395   0.080629
H   0.732122  -0.130053  -0.056580
