%chk=/home/boittier/MDCM/nms_sampling/butadiene_geom.xyz.dir/butadiene_1015.chk
%nproc=8
%mem=16000MB
#p B2PLYPD3/Def2QZVP 

butadiene

0 1
C  -3.829201   0.218120   0.047210
C  -2.707817  -0.481361   0.003313
C  -1.396190   0.080141  -0.018230
C  -0.277345  -0.661293   0.051973
H  -4.742564  -0.352900   0.049011
H  -3.804526   1.284814   0.117276
H  -2.739475  -1.515010  -0.021346
H  -1.301011   1.158601  -0.148621
H  -0.406634  -1.770669   0.185792
H   0.712201  -0.258816   0.111204

