%chk=/home/boittier/MDCM/nms_sampling/butadiene_geom.xyz.dir/butadiene_2691.chk
%nproc=8
%mem=16000MB
#p B2PLYPD3/Def2QZVP 

butadiene

0 1
C  -3.799097   0.263721  -0.034936
C  -2.741091  -0.560466   0.084088
C  -1.418521   0.033684   0.071586
C  -0.262531  -0.613313  -0.039006
H  -4.788195  -0.198019   0.073531
H  -3.660087   1.359271  -0.217648
H  -2.855313  -1.614405   0.213483
H  -1.254881   1.136827   0.302052
H  -0.272601  -1.757378   0.093864
H   0.701017  -0.049554  -0.032180

