%chk=/home/boittier/MDCM/nms_sampling/butadiene_geom.xyz.dir/butadiene_921.chk
%nproc=8
%mem=16000MB
#p B2PLYPD3/Def2QZVP 

butadiene

0 1
C  -3.836217   0.213567   0.012083
C  -2.716218  -0.497281   0.039267
C  -1.383758   0.095723   0.011337
C  -0.270282  -0.665012   0.032101
H  -4.800052  -0.253739   0.027898
H  -3.832023   1.304583   0.002403
H  -2.771323  -1.576448   0.144300
H  -1.325415   1.165147   0.011673
H  -0.343351  -1.740276  -0.003257
H   0.733435  -0.260531   0.035748
