%chk=/home/boittier/MDCM/nms_sampling/butadiene_geom.xyz.dir/butadiene_50.chk
%nproc=8
%mem=16000MB
#p B2PLYPD3/Def2QZVP 

butadiene

0 1
C  -3.843182   0.235583  -0.009593
C  -2.728870  -0.509730   0.060847
C  -1.386325   0.057188   0.052080
C  -0.257059  -0.650295   0.006252
H  -4.798996  -0.236378   0.006947
H  -3.793046   1.327265  -0.022010
H  -2.796374  -1.574758   0.095016
H  -1.336322   1.140865  -0.041854
H  -0.192155  -1.733020   0.024774
H   0.693762  -0.135500  -0.040512
