%chk=/home/boittier/MDCM/nms_sampling/butadiene_geom.xyz.dir/butadiene_135.chk
%nproc=8
%mem=16000MB
#p B2PLYPD3/Def2QZVP 

butadiene

0 1
C  -3.832641   0.230029   0.028217
C  -2.720339  -0.503600   0.030995
C  -1.396362   0.067748  -0.003122
C  -0.262458  -0.655833   0.042538
H  -4.817487  -0.233739   0.077751
H  -3.759760   1.324791  -0.042131
H  -2.769061  -1.597778   0.018366
H  -1.358276   1.136628  -0.011495
H  -0.242722  -1.742142   0.050939
H   0.677108  -0.160503   0.059220
