%chk=/home/boittier/MDCM/nms_sampling/butadiene_geom.xyz.dir/butadiene_705.chk
%nproc=8
%mem=16000MB
#p B2PLYPD3/Def2QZVP 

butadiene

0 1
C  -3.833337   0.237426   0.032697
C  -2.723090  -0.523201   0.014819
C  -1.383070   0.057961   0.002147
C  -0.267410  -0.640316   0.039830
H  -4.829189  -0.206317   0.047583
H  -3.763147   1.321547   0.037543
H  -2.798722  -1.596903   0.010787
H  -1.341338   1.142212  -0.026664
H  -0.311066  -1.728677   0.195989
H   0.713710  -0.144826  -0.016255
