%chk=/home/boittier/MDCM/nms_sampling/butadiene_geom.xyz.dir/butadiene_1827.chk
%nproc=8
%mem=16000MB
#p B2PLYPD3/Def2QZVP 

butadiene

0 1
C  -3.860102   0.204083   0.048341
C  -2.718658  -0.469700   0.016486
C  -1.371323   0.081165  -0.012159
C  -0.251484  -0.665779   0.062388
H  -4.786128  -0.318100  -0.043570
H  -3.883047   1.306725   0.083981
H  -2.764699  -1.533900  -0.032791
H  -1.278479   1.127253  -0.197255
H  -0.412755  -1.742491   0.070399
H   0.724522  -0.230827   0.027513
