%chk=/home/boittier/MDCM/nms_sampling/butadiene_geom.xyz.dir/butadiene_369.chk
%nproc=8
%mem=16000MB
#p B2PLYPD3/Def2QZVP 

butadiene

0 1
C  -3.843058   0.239729   0.017719
C  -2.715607  -0.508070   0.040634
C  -1.387450   0.049287   0.011189
C  -0.256089  -0.646264   0.029670
H  -4.823638  -0.239534   0.033243
H  -3.824192   1.305459  -0.081402
H  -2.780563  -1.583245   0.103655
H  -1.356296   1.145234   0.074100
H  -0.289237  -1.710278   0.030589
H   0.688131  -0.161362   0.007758

