%chk=/home/boittier/MDCM/nms_sampling/butadiene_geom.xyz.dir/butadiene_2128.chk
%nproc=8
%mem=16000MB
#p B2PLYPD3/Def2QZVP 

butadiene

0 1
C  -3.858333   0.180412  -0.018379
C  -2.694106  -0.453471   0.057032
C  -1.365270   0.117912   0.078054
C  -0.287096  -0.684546   0.003518
H  -4.883329  -0.257784   0.069435
H  -3.757985   1.224104  -0.042034
H  -2.753959  -1.637908   0.076566
H  -1.265571   1.198060  -0.123823
H  -0.459173  -1.797505  -0.010051
H   0.724123  -0.235991  -0.087698

