%chk=/home/boittier/MDCM/nms_sampling/butadiene_geom.xyz.dir/butadiene_1196.chk
%nproc=8
%mem=16000MB
#p B2PLYPD3/Def2QZVP 

butadiene

0 1
C  -3.864148   0.219078  -0.008525
C  -2.716054  -0.493021   0.051295
C  -1.361697   0.102037   0.056081
C  -0.257833  -0.670692   0.007783
H  -4.785039  -0.343557   0.034787
H  -3.902210   1.299755   0.012245
H  -2.785319  -1.577604   0.091481
H  -1.340982   1.164605  -0.098108
H  -0.358181  -1.792392   0.039546
H   0.740807  -0.237808  -0.029874

