%chk=/home/boittier/MDCM/nms_sampling/butadiene_geom.xyz.dir/butadiene_1350.chk
%nproc=8
%mem=16000MB
#p B2PLYPD3/Def2QZVP 

butadiene

0 1
C  -3.842865   0.236180   0.016880
C  -2.724634  -0.504486   0.041405
C  -1.379983   0.055091  -0.011619
C  -0.252554  -0.654636   0.045209
H  -4.810113  -0.249118   0.067708
H  -3.823819   1.300602   0.094112
H  -2.836744  -1.608833  -0.043901
H  -1.300018   1.133455  -0.052235
H  -0.261154  -1.691945   0.114655
H   0.614639  -0.098297   0.033445
