%chk=/home/boittier/MDCM/nms_sampling/butadiene_geom.xyz.dir/butadiene_914.chk
%nproc=8
%mem=16000MB
#p B2PLYPD3/Def2QZVP 

butadiene

0 1
C  -3.835468   0.218409   0.035763
C  -2.707481  -0.489926   0.029916
C  -1.386105   0.067572  -0.003988
C  -0.282584  -0.656905   0.044998
H  -4.796560  -0.242082  -0.001524
H  -3.794647   1.298809   0.005659
H  -2.753393  -1.576106  -0.035435
H  -1.310194   1.171650  -0.063859
H  -0.333643  -1.744452   0.119058
H   0.709276  -0.186577   0.006590
