%chk=/home/boittier/MDCM/nms_sampling/butadiene_geom.xyz.dir/butadiene_1815.chk
%nproc=8
%mem=16000MB
#p B2PLYPD3/Def2QZVP 

butadiene

0 1
C  -3.845355   0.213239   0.009959
C  -2.699309  -0.484246   0.034022
C  -1.381234   0.082835   0.018903
C  -0.271651  -0.660747   0.033241
H  -4.849941  -0.260401   0.089612
H  -3.837016   1.269257  -0.088958
H  -2.782742  -1.594696   0.159411
H  -1.324924   1.159418   0.110793
H  -0.387522  -1.720308  -0.004696
H   0.726903  -0.272197  -0.045744
