%chk=/home/boittier/MDCM/nms_sampling/butadiene_geom.xyz.dir/butadiene_2647.chk
%nproc=8
%mem=16000MB
#p B2PLYPD3/Def2QZVP 

butadiene

0 1
C  -3.812224   0.253845  -0.030309
C  -2.728049  -0.546597   0.128342
C  -1.425485   0.039060   0.072644
C  -0.251042  -0.609226  -0.027239
H  -4.846901  -0.163965  -0.307259
H  -3.693237   1.353211  -0.132330
H  -2.776088  -1.644023   0.097631
H  -1.365035   1.119220   0.172689
H  -0.365602  -1.726226   0.048801
H   0.866199  -0.214693  -0.256348

