%chk=/home/boittier/MDCM/nms_sampling/butadiene_geom.xyz.dir/butadiene_2252.chk
%nproc=8
%mem=16000MB
#p B2PLYPD3/Def2QZVP 

butadiene

0 1
C  -3.797065   0.242206   0.041856
C  -2.720180  -0.528355   0.002994
C  -1.409612   0.069514  -0.072734
C  -0.290501  -0.662929   0.092935
H  -4.816026  -0.204102   0.187754
H  -3.711081   1.323891   0.092585
H  -2.812572  -1.551350   0.089288
H  -1.394542   1.176777   0.114433
H  -0.104256  -1.676878   0.011109
H   0.644616  -0.131171   0.094746
