%chk=/home/boittier/MDCM/nms_sampling/butadiene_geom.xyz.dir/butadiene_2348.chk
%nproc=8
%mem=16000MB
#p B2PLYPD3/Def2QZVP 

butadiene

0 1
C  -3.818969   0.197629  -0.014297
C  -2.697516  -0.453027   0.057465
C  -1.409890   0.091786   0.095556
C  -0.296535  -0.682472  -0.035764
H  -4.781782  -0.265988   0.148538
H  -3.834866   1.271280  -0.313510
H  -2.614225  -1.542404   0.184292
H  -1.285332   1.162111   0.050684
H  -0.295377  -1.715888  -0.027279
H   0.678053  -0.323700   0.107801

