%chk=/home/boittier/MDCM/nms_sampling/butadiene_geom.xyz.dir/butadiene_1293.chk
%nproc=8
%mem=16000MB
#p B2PLYPD3/Def2QZVP 

butadiene

0 1
C  -3.812142   0.232437  -0.019475
C  -2.710839  -0.506218   0.065199
C  -1.398389   0.046698   0.073761
C  -0.275420  -0.644317  -0.001471
H  -4.798328  -0.213324  -0.044231
H  -3.763031   1.320214  -0.054006
H  -2.841646  -1.556842   0.179931
H  -1.409670   1.117027   0.011914
H  -0.335189  -1.698357  -0.005706
H   0.694154  -0.143129  -0.152601

