%chk=/home/boittier/MDCM/nms_sampling/butadiene_geom.xyz.dir/butadiene_1581.chk
%nproc=8
%mem=16000MB
#p B2PLYPD3/Def2QZVP 

butadiene

0 1
C  -3.819969   0.235270   0.047563
C  -2.718806  -0.518025   0.010474
C  -1.393490   0.073716  -0.033160
C  -0.272178  -0.660520   0.051307
H  -4.852503  -0.172304  -0.022857
H  -3.757073   1.291310   0.172737
H  -2.800051  -1.615292  -0.024570
H  -1.358526   1.119521  -0.075070
H  -0.231363  -1.725342   0.265850
H   0.627894  -0.090270   0.076455
