%chk=/home/boittier/MDCM/nms_sampling/butadiene_geom.xyz.dir/butadiene_1010.chk
%nproc=8
%mem=16000MB
#p B2PLYPD3/Def2QZVP 

butadiene

0 1
C  -3.830663   0.206596   0.048861
C  -2.702194  -0.481934  -0.009097
C  -1.383274   0.095721  -0.025184
C  -0.288991  -0.676751   0.063827
H  -4.828780  -0.230082   0.239913
H  -3.851981   1.266007   0.002359
H  -2.769627  -1.571854  -0.060285
H  -1.299519   1.196017  -0.072387
H  -0.285951  -1.792571   0.147346
H   0.660715  -0.188711   0.125464
