%chk=/home/boittier/MDCM/nms_sampling/butadiene_geom.xyz.dir/butadiene_1963.chk
%nproc=8
%mem=16000MB
#p B2PLYPD3/Def2QZVP 

butadiene

0 1
C  -3.877999   0.256371   0.053285
C  -2.734485  -0.543035  -0.020143
C  -1.372336   0.029548  -0.078381
C  -0.213495  -0.630682   0.103524
H  -4.905699  -0.114881   0.405943
H  -3.739027   1.334860   0.120136
H  -2.833450  -1.596724  -0.129623
H  -1.409447   1.137031  -0.095239
H  -0.137286  -1.697912   0.087294
H   0.587854  -0.071210   0.234802

