%chk=/home/boittier/MDCM/nms_sampling/butadiene_geom.xyz.dir/butadiene_2523.chk
%nproc=8
%mem=16000MB
#p B2PLYPD3/Def2QZVP 

butadiene

0 1
C  -3.858267   0.203855   0.058850
C  -2.707764  -0.469508  -0.038272
C  -1.357973   0.111606  -0.041508
C  -0.282822  -0.705433   0.084870
H  -4.736335  -0.324783   0.356449
H  -3.992582   1.281131   0.069993
H  -2.646028  -1.547741  -0.103066
H  -1.243828   1.253899  -0.102767
H  -0.348882  -1.779408   0.213011
H   0.613877  -0.153259   0.113941

