%chk=/home/boittier/MDCM/nms_sampling/butadiene_geom.xyz.dir/butadiene_853.chk
%nproc=8
%mem=16000MB
#p B2PLYPD3/Def2QZVP 

butadiene

0 1
C  -3.836144   0.220363  -0.004006
C  -2.708880  -0.494234   0.069012
C  -1.380916   0.084952   0.035287
C  -0.277066  -0.664843   0.011425
H  -4.782950  -0.278332  -0.077093
H  -3.835639   1.294023  -0.007455
H  -2.808789  -1.589736   0.101800
H  -1.341648   1.155124   0.007047
H  -0.343898  -1.749166   0.024856
H   0.723977  -0.194212  -0.049790
