%chk=/home/boittier/MDCM/nms_sampling/butadiene_geom.xyz.dir/butadiene_545.chk
%nproc=8
%mem=16000MB
#p B2PLYPD3/Def2QZVP 

butadiene

0 1
C  -3.844831   0.230520   0.033370
C  -2.725135  -0.512632   0.032972
C  -1.382815   0.061240  -0.008854
C  -0.256048  -0.644460   0.045827
H  -4.845878  -0.185341   0.019508
H  -3.815003   1.297823   0.002426
H  -2.782251  -1.594419  -0.026969
H  -1.302672   1.160066  -0.047983
H  -0.259350  -1.739181   0.093683
H   0.696715  -0.176656   0.037330

