%chk=/home/boittier/MDCM/nms_sampling/butadiene_geom.xyz.dir/butadiene_1460.chk
%nproc=8
%mem=16000MB
#p B2PLYPD3/Def2QZVP 

butadiene

0 1
C  -3.862428   0.205361   0.023953
C  -2.710526  -0.478748   0.003196
C  -1.377612   0.104993   0.004002
C  -0.263151  -0.675890   0.041465
H  -4.812415  -0.280578   0.143874
H  -3.845391   1.264599   0.035506
H  -2.777505  -1.575120   0.174625
H  -1.319524   1.172635  -0.001007
H  -0.292075  -1.744956   0.062280
H   0.787903  -0.289283   0.077957
