%chk=/home/boittier/MDCM/nms_sampling/butadiene_geom.xyz.dir/butadiene_255.chk
%nproc=8
%mem=16000MB
#p B2PLYPD3/Def2QZVP 

butadiene

0 1
C  -3.834924   0.225450   0.023361
C  -2.717719  -0.513037   0.034006
C  -1.387080   0.076968  -0.008852
C  -0.269747  -0.653744   0.045367
H  -4.837996  -0.170733   0.056392
H  -3.790047   1.288948  -0.012340
H  -2.753404  -1.593019   0.071941
H  -1.317675   1.162087   0.041237
H  -0.293783  -1.735588   0.033207
H   0.688529  -0.195194   0.032698
