%chk=/home/boittier/MDCM/nms_sampling/butadiene_geom.xyz.dir/butadiene_1960.chk
%nproc=8
%mem=16000MB
#p B2PLYPD3/Def2QZVP 

butadiene

0 1
C  -3.831599   0.173787   0.028017
C  -2.705179  -0.459755  -0.022931
C  -1.383703   0.134060   0.007028
C  -0.300121  -0.690579   0.057338
H  -4.786919  -0.247419   0.093958
H  -3.769696   1.193785   0.312091
H  -2.760660  -1.526621   0.056019
H  -1.180958   1.245955  -0.187863
H  -0.384881  -1.808252   0.297458
H   0.694251  -0.303059  -0.107525
