%chk=/home/boittier/MDCM/nms_sampling/butadiene_geom.xyz.dir/butadiene_2028.chk
%nproc=8
%mem=16000MB
#p B2PLYPD3/Def2QZVP 

butadiene

0 1
C  -3.837941   0.194968   0.067941
C  -2.716355  -0.440697  -0.012815
C  -1.384815   0.096774  -0.065778
C  -0.268626  -0.684151   0.086583
H  -4.748378  -0.453441  -0.030759
H  -3.810419   1.277434   0.345055
H  -2.798128  -1.581855  -0.124618
H  -1.287931   1.212370  -0.223027
H  -0.408743  -1.771492   0.321281
H   0.728747  -0.248476   0.064167
