%chk=/home/boittier/MDCM/nms_sampling/butadiene_geom.xyz.dir/butadiene_1260.chk
%nproc=8
%mem=16000MB
#p B2PLYPD3/Def2QZVP 

butadiene

0 1
C  -3.835209   0.230872   0.034380
C  -2.732383  -0.510096   0.010302
C  -1.393212   0.057346  -0.011696
C  -0.243458  -0.642880   0.052004
H  -4.813714  -0.226817   0.122919
H  -3.809695   1.309113   0.056780
H  -2.909133  -1.613509   0.059366
H  -1.308513   1.149055  -0.115314
H  -0.256022  -1.672582   0.035261
H   0.744312  -0.187710   0.153656
