%chk=/home/boittier/MDCM/nms_sampling/butadiene_geom.xyz.dir/butadiene_961.chk
%nproc=8
%mem=16000MB
#p B2PLYPD3/Def2QZVP 

butadiene

0 1
C  -3.810017   0.233407   0.028538
C  -2.714896  -0.511483   0.044177
C  -1.416533   0.053121  -0.000216
C  -0.270079  -0.648928   0.036792
H  -4.824395  -0.196125  -0.098447
H  -3.731413   1.325524   0.020108
H  -2.826814  -1.556155   0.012071
H  -1.365155   1.141056  -0.002066
H  -0.222368  -1.696526   0.127354
H   0.705257  -0.150053  -0.051519
