%chk=/home/boittier/MDCM/nms_sampling/butadiene_geom.xyz.dir/butadiene_199.chk
%nproc=8
%mem=16000MB
#p B2PLYPD3/Def2QZVP 

butadiene

0 1
C  -3.846658   0.220212   0.014006
C  -2.713922  -0.489947   0.042804
C  -1.384621   0.077554   0.035337
C  -0.258101  -0.661336   0.016128
H  -4.788154  -0.251419  -0.057383
H  -3.874834   1.289935  -0.039187
H  -2.794782  -1.584875   0.119683
H  -1.342086   1.147789  -0.010385
H  -0.306721  -1.746645   0.066586
H   0.724893  -0.218578  -0.038480

