%chk=/home/boittier/MDCM/nms_sampling/butadiene_geom.xyz.dir/butadiene_534.chk
%nproc=8
%mem=16000MB
#p B2PLYPD3/Def2QZVP 

butadiene

0 1
C  -3.835877   0.215010   0.037907
C  -2.714721  -0.498085   0.018216
C  -1.379849   0.094890  -0.004411
C  -0.274482  -0.671937   0.044406
H  -4.804045  -0.240504   0.027037
H  -3.816697   1.309545  -0.027110
H  -2.759286  -1.569744   0.083199
H  -1.339020   1.150487  -0.013306
H  -0.327548  -1.744635   0.060023
H   0.681355  -0.188097   0.058559

