%chk=/home/boittier/MDCM/nms_sampling/butadiene_geom.xyz.dir/butadiene_1850.chk
%nproc=8
%mem=16000MB
#p B2PLYPD3/Def2QZVP 

butadiene

0 1
C  -3.853285   0.206564   0.040412
C  -2.726851  -0.484380  -0.006194
C  -1.379045   0.096550  -0.015828
C  -0.255567  -0.675028   0.062686
H  -4.827294  -0.245501   0.235896
H  -3.859731   1.272594   0.027714
H  -2.747361  -1.545439  -0.029418
H  -1.269101   1.202615  -0.092282
H  -0.226647  -1.736186   0.114753
H   0.691856  -0.257135   0.094460
