%chk=/home/boittier/MDCM/nms_sampling/butadiene_geom.xyz.dir/butadiene_1063.chk
%nproc=8
%mem=16000MB
#p B2PLYPD3/Def2QZVP 

butadiene

0 1
C  -3.858100   0.207820   0.049149
C  -2.723622  -0.476875  -0.010591
C  -1.372560   0.096747   0.005243
C  -0.267091  -0.678000   0.054745
H  -4.775204  -0.280960   0.139553
H  -3.857873   1.299528  -0.061116
H  -2.762170  -1.600519   0.069607
H  -1.292206   1.174535  -0.115505
H  -0.199575  -1.763029   0.032933
H   0.722155  -0.212067   0.084231

