%chk=/home/boittier/MDCM/nms_sampling/butadiene_geom.xyz.dir/butadiene_1596.chk
%nproc=8
%mem=16000MB
#p B2PLYPD3/Def2QZVP 

butadiene

0 1
C  -3.840706   0.197637   0.062735
C  -2.699672  -0.476081  -0.013522
C  -1.384969   0.100250   0.000886
C  -0.273959  -0.672456   0.061895
H  -4.871577  -0.214670   0.011630
H  -3.786599   1.240551   0.027981
H  -2.779517  -1.577362  -0.041446
H  -1.323411   1.168547  -0.199322
H  -0.404383  -1.752632   0.166668
H   0.719793  -0.251805  -0.023748
