%chk=/home/boittier/MDCM/nms_sampling/butadiene_geom.xyz.dir/butadiene_907.chk
%nproc=8
%mem=16000MB
#p B2PLYPD3/Def2QZVP 

butadiene

0 1
C  -3.833206   0.220135   0.029220
C  -2.713180  -0.498122   0.023508
C  -1.390201   0.087913  -0.013873
C  -0.274312  -0.662309   0.049574
H  -4.773066  -0.259339   0.111440
H  -3.860399   1.295673   0.039211
H  -2.745071  -1.579293   0.001746
H  -1.311950   1.187949  -0.059256
H  -0.331467  -1.759847   0.075636
H   0.739680  -0.253129   0.098650

