%chk=/home/boittier/MDCM/nms_sampling/butadiene_geom.xyz.dir/butadiene_2371.chk
%nproc=8
%mem=16000MB
#p B2PLYPD3/Def2QZVP 

butadiene

0 1
C  -3.808991   0.227095   0.056728
C  -2.720143  -0.531871  -0.031405
C  -1.401105   0.032304  -0.057807
C  -0.271563  -0.610559   0.097693
H  -4.970762  -0.032848   0.340837
H  -3.629709   1.367780   0.159833
H  -2.845059  -1.586812  -0.167423
H  -1.378466   1.106127  -0.133218
H  -0.229741  -1.734872   0.228763
H   0.662695  -0.174151   0.085356

