%chk=/home/boittier/MDCM/nms_sampling/butadiene_geom.xyz.dir/butadiene_2732.chk
%nproc=8
%mem=16000MB
#p B2PLYPD3/Def2QZVP 

butadiene

0 1
C  -3.832507   0.199801   0.032942
C  -2.692704  -0.481674   0.041262
C  -1.386221   0.089489   0.043522
C  -0.263227  -0.652867   0.021695
H  -4.874284  -0.207856  -0.051445
H  -3.873654   1.305346  -0.203735
H  -2.876064  -1.641353  -0.064494
H  -1.385396   1.173400  -0.030649
H  -0.454807  -1.765950   0.117042
H   0.722072  -0.332764  -0.134695
