%chk=/home/boittier/MDCM/nms_sampling/butadiene_geom.xyz.dir/butadiene_2222.chk
%nproc=8
%mem=16000MB
#p B2PLYPD3/Def2QZVP 

butadiene

0 1
C  -3.879537   0.217710  -0.052585
C  -2.713980  -0.472864   0.094587
C  -1.342430   0.082052   0.062070
C  -0.269521  -0.676113  -0.031747
H  -4.703233  -0.377364   0.043696
H  -4.020520   1.228520  -0.050219
H  -2.775191  -1.533946   0.414110
H  -1.199625   1.177140   0.169379
H  -0.396210  -1.724116  -0.168072
H   0.730677  -0.178988   0.159583

