%chk=/home/boittier/MDCM/nms_sampling/butadiene_geom.xyz.dir/butadiene_1383.chk
%nproc=8
%mem=16000MB
#p B2PLYPD3/Def2QZVP 

butadiene

0 1
C  -3.829733   0.235587   0.039350
C  -2.714413  -0.530891   0.029991
C  -1.405002   0.053550  -0.017827
C  -0.261000  -0.635247   0.043181
H  -4.892980  -0.111497   0.017159
H  -3.746725   1.346737   0.057565
H  -2.732710  -1.606006  -0.090926
H  -1.325124   1.175567  -0.097207
H  -0.278524  -1.731170   0.180626
H   0.692700  -0.181434   0.097310
