%chk=/home/boittier/MDCM/nms_sampling/butadiene_geom.xyz.dir/butadiene_1072.chk
%nproc=8
%mem=16000MB
#p B2PLYPD3/Def2QZVP 

butadiene

0 1
C  -3.822709   0.217452  -0.009108
C  -2.708610  -0.485301   0.075997
C  -1.399491   0.081412   0.052798
C  -0.281985  -0.661510  -0.004677
H  -4.797158  -0.267731  -0.012996
H  -3.831051   1.289300  -0.158305
H  -2.727459  -1.581532   0.148889
H  -1.329033   1.142384   0.040151
H  -0.338784  -1.757720  -0.075674
H   0.763488  -0.243330   0.042827

