%chk=/home/boittier/MDCM/nms_sampling/butadiene_geom.xyz.dir/butadiene_1492.chk
%nproc=8
%mem=16000MB
#p B2PLYPD3/Def2QZVP 

butadiene

0 1
C  -3.853038   0.216913   0.029579
C  -2.712062  -0.478238   0.015528
C  -1.387928   0.064751   0.002529
C  -0.264887  -0.664352   0.057165
H  -4.795724  -0.301221   0.040542
H  -3.850614   1.296247   0.039631
H  -2.786292  -1.518171   0.011221
H  -1.247301   1.155479  -0.015835
H  -0.241471  -1.703767   0.131806
H   0.727981  -0.194751  -0.146146

