%chk=/home/boittier/MDCM/nms_sampling/butadiene_geom.xyz.dir/butadiene_1328.chk
%nproc=8
%mem=16000MB
#p B2PLYPD3/Def2QZVP 

butadiene

0 1
C  -3.834224   0.210727   0.057182
C  -2.715358  -0.487547   0.011130
C  -1.372118   0.092049  -0.024632
C  -0.271751  -0.665974   0.055838
H  -4.820049  -0.301073  -0.092587
H  -3.837550   1.273448   0.075069
H  -2.824947  -1.585351   0.012618
H  -1.332397   1.214441  -0.083615
H  -0.405208  -1.759908   0.163059
H   0.713526  -0.232764   0.039548

