%chk=/home/boittier/MDCM/nms_sampling/butadiene_geom.xyz.dir/butadiene_2808.chk
%nproc=8
%mem=16000MB
#p B2PLYPD3/Def2QZVP 

butadiene

0 1
C  -3.872903   0.229931   0.115500
C  -2.720100  -0.512754  -0.086059
C  -1.377591   0.025703  -0.052285
C  -0.230408  -0.635346   0.092150
H  -4.974854  -0.094088   0.105985
H  -3.758434   1.344077   0.015244
H  -2.860985  -1.577249   0.100925
H  -1.395013   1.145427  -0.113234
H  -0.155509  -1.662369   0.227718
H   0.736501  -0.099132   0.161250

