%chk=/home/boittier/MDCM/nms_sampling/butadiene_geom.xyz.dir/butadiene_852.chk
%nproc=8
%mem=16000MB
#p B2PLYPD3/Def2QZVP 

butadiene

0 1
C  -3.831842   0.236850   0.011943
C  -2.719807  -0.513546   0.035514
C  -1.394267   0.059506   0.032771
C  -0.271837  -0.645856   0.026348
H  -4.810912  -0.216014   0.069465
H  -3.786484   1.305639  -0.098505
H  -2.757221  -1.591789   0.137377
H  -1.306680   1.159417  -0.001556
H  -0.224462  -1.735882  -0.035415
H   0.692685  -0.181295   0.005948

