%chk=/home/boittier/MDCM/nms_sampling/butadiene_geom.xyz.dir/butadiene_1539.chk
%nproc=8
%mem=16000MB
#p B2PLYPD3/Def2QZVP 

butadiene

0 1
C  -3.853496   0.208979   0.000110
C  -2.732762  -0.472437   0.054940
C  -1.371865   0.084703   0.026974
C  -0.263559  -0.671996   0.024979
H  -4.768571  -0.329976   0.026883
H  -3.835588   1.245845  -0.083039
H  -2.742519  -1.549101   0.117315
H  -1.190567   1.203427   0.108552
H  -0.307014  -1.750822   0.003313
H   0.691174  -0.190581  -0.095236

