%chk=/home/boittier/MDCM/nms_sampling/butadiene_geom.xyz.dir/butadiene_1374.chk
%nproc=8
%mem=16000MB
#p B2PLYPD3/Def2QZVP 

butadiene

0 1
C  -3.858972   0.204681   0.008023
C  -2.719968  -0.486316   0.044321
C  -1.364822   0.094164   0.024544
C  -0.258538  -0.666761   0.004746
H  -4.864557  -0.267819   0.030470
H  -3.836698   1.268235  -0.067956
H  -2.807203  -1.552139   0.215896
H  -1.261463   1.184923   0.061150
H  -0.358282  -1.791676   0.009374
H   0.722710  -0.189558   0.153302

