%chk=/home/boittier/MDCM/nms_sampling/butadiene_geom.xyz.dir/butadiene_1967.chk
%nproc=8
%mem=16000MB
#p B2PLYPD3/Def2QZVP 

butadiene

0 1
C  -3.853373   0.240936   0.011780
C  -2.704330  -0.503586   0.061900
C  -1.388467   0.025396  -0.030406
C  -0.261577  -0.645950   0.053306
H  -4.813953  -0.198852   0.055747
H  -3.799618   1.410316  -0.109573
H  -2.679560  -1.632001   0.153990
H  -1.352679   1.136929   0.238078
H  -0.272909  -1.692226  -0.139279
H   0.602462  -0.071335   0.039185
