%chk=/home/boittier/MDCM/nms_sampling/butadiene_geom.xyz.dir/butadiene_1124.chk
%nproc=8
%mem=16000MB
#p B2PLYPD3/Def2QZVP 

butadiene

0 1
C  -3.834264   0.231826   0.037157
C  -2.716620  -0.513774   0.024689
C  -1.384282   0.091081  -0.024765
C  -0.276179  -0.655915   0.069408
H  -4.783899  -0.323924   0.058099
H  -3.803767   1.320430   0.088580
H  -2.762765  -1.605076  -0.097679
H  -1.304080   1.156853  -0.119941
H  -0.368524  -1.748887   0.090057
H   0.752474  -0.240742  -0.002153

