%chk=/home/boittier/MDCM/nms_sampling/butadiene_geom.xyz.dir/butadiene_1454.chk
%nproc=8
%mem=16000MB
#p B2PLYPD3/Def2QZVP 

butadiene

0 1
C  -3.860705   0.208550   0.044382
C  -2.726221  -0.477980   0.016394
C  -1.377585   0.073304  -0.027653
C  -0.247527  -0.649842   0.073294
H  -4.808595  -0.273610   0.060666
H  -3.874408   1.264421   0.075396
H  -2.765568  -1.518279  -0.090050
H  -1.252263   1.143857  -0.123419
H  -0.342005  -1.767010   0.090787
H   0.775445  -0.287817   0.005253

