%chk=/home/boittier/MDCM/nms_sampling/butadiene_geom.xyz.dir/butadiene_1297.chk
%nproc=8
%mem=16000MB
#p B2PLYPD3/Def2QZVP 

butadiene

0 1
C  -3.848217   0.226330  -0.015650
C  -2.717088  -0.504520   0.071446
C  -1.382316   0.044956   0.074230
C  -0.256698  -0.648224  -0.018595
H  -4.873949  -0.181405  -0.051418
H  -3.793972   1.322770  -0.066534
H  -2.889627  -1.557575   0.127972
H  -1.290138   1.137302  -0.034949
H  -0.181828  -1.690711   0.050537
H   0.660889  -0.087856  -0.020719

