%chk=/home/boittier/MDCM/nms_sampling/butadiene_geom.xyz.dir/butadiene_1587.chk
%nproc=8
%mem=16000MB
#p B2PLYPD3/Def2QZVP 

butadiene

0 1
C  -3.827693   0.250062  -0.008232
C  -2.716010  -0.523550   0.069474
C  -1.410630   0.036513   0.012711
C  -0.257029  -0.634831   0.018934
H  -4.789494  -0.214787  -0.030377
H  -3.788038   1.376588   0.089545
H  -2.775275  -1.582751   0.058843
H  -1.394675   1.129627   0.042676
H  -0.220299  -1.707646   0.099401
H   0.710627  -0.170864  -0.035492
