%chk=/home/boittier/MDCM/nms_sampling/butadiene_geom.xyz.dir/butadiene_2400.chk
%nproc=8
%mem=16000MB
#p B2PLYPD3/Def2QZVP 

butadiene

0 1
C  -3.804920   0.220471   0.010162
C  -2.708021  -0.501630   0.033423
C  -1.405407   0.093036   0.041765
C  -0.301559  -0.664192   0.036985
H  -4.726346  -0.340697  -0.158528
H  -3.793521   1.273431   0.114022
H  -2.750815  -1.514585   0.145453
H  -1.183943   1.194048  -0.065057
H  -0.436989  -1.707380   0.091923
H   0.735236  -0.259481  -0.280588

