%chk=/home/boittier/MDCM/nms_sampling/butadiene_geom.xyz.dir/butadiene_1144.chk
%nproc=8
%mem=16000MB
#p B2PLYPD3/Def2QZVP 

butadiene

0 1
C  -3.836237   0.236024   0.051503
C  -2.733125  -0.512333  -0.013719
C  -1.380456   0.047355  -0.037331
C  -0.254568  -0.635848   0.080416
H  -4.784531  -0.272210   0.178933
H  -3.754398   1.348272   0.006183
H  -2.871497  -1.581784   0.067037
H  -1.354654   1.138844   0.027878
H  -0.274222  -1.724659   0.060095
H   0.686348  -0.157364   0.040420

