%chk=/home/boittier/MDCM/nms_sampling/butadiene_geom.xyz.dir/butadiene_1023.chk
%nproc=8
%mem=16000MB
#p B2PLYPD3/Def2QZVP 

butadiene

0 1
C  -3.834943   0.202083   0.003343
C  -2.703211  -0.475514   0.050518
C  -1.386243   0.102028   0.025705
C  -0.280278  -0.682588   0.007577
H  -4.842324  -0.276185   0.009035
H  -3.846605   1.283355  -0.064916
H  -2.786000  -1.601781   0.222670
H  -1.260447   1.203786   0.084222
H  -0.320809  -1.743655  -0.011357
H   0.683674  -0.207838   0.097547

