%chk=/home/boittier/MDCM/nms_sampling/butadiene_geom.xyz.dir/butadiene_2224.chk
%nproc=8
%mem=16000MB
#p B2PLYPD3/Def2QZVP 

butadiene

0 1
C  -3.830348   0.230266  -0.012716
C  -2.713789  -0.499158   0.087048
C  -1.394408   0.056596   0.030644
C  -0.274080  -0.666690   0.016094
H  -4.819905  -0.193023   0.009951
H  -3.738444   1.376154  -0.158222
H  -2.743758  -1.568745   0.209244
H  -1.443523   1.086216   0.038149
H  -0.125063  -1.671387  -0.290977
H   0.608734  -0.106963   0.122453
