%chk=/home/boittier/MDCM/nms_sampling/butadiene_geom.xyz.dir/butadiene_2673.chk
%nproc=8
%mem=16000MB
#p B2PLYPD3/Def2QZVP 

butadiene

0 1
C  -3.856212   0.185368  -0.050635
C  -2.718319  -0.420426   0.141948
C  -1.383775   0.078869   0.055827
C  -0.246354  -0.680502  -0.013154
H  -4.669279  -0.442344  -0.077321
H  -3.897500   1.323208  -0.042541
H  -2.816190  -1.549252  -0.054091
H  -1.324022   1.173970   0.030767
H  -0.415071  -1.758617  -0.043555
H   0.763555  -0.269771  -0.098251

