%chk=/home/boittier/MDCM/nms_sampling/butadiene_geom.xyz.dir/butadiene_2158.chk
%nproc=8
%mem=16000MB
#p B2PLYPD3/Def2QZVP 

butadiene

0 1
C  -3.850457   0.255651   0.067833
C  -2.749862  -0.551879  -0.044447
C  -1.383833   0.031007  -0.003881
C  -0.229699  -0.632387   0.050349
H  -4.908262  -0.103964   0.049505
H  -3.680955   1.355470   0.153697
H  -2.716635  -1.552807   0.023464
H  -1.380464   1.102788  -0.169764
H  -0.218080  -1.656751   0.377788
H   0.673190  -0.026929   0.025038

