%chk=/home/boittier/MDCM/nms_sampling/butadiene_geom.xyz.dir/butadiene_1016.chk
%nproc=8
%mem=16000MB
#p B2PLYPD3/Def2QZVP 

butadiene

0 1
C  -3.836931   0.213964  -0.002660
C  -2.709339  -0.494537   0.060459
C  -1.392296   0.083636   0.046169
C  -0.281875  -0.656185   0.016069
H  -4.842815  -0.251766   0.000995
H  -3.739518   1.306485  -0.042994
H  -2.698815  -1.564282  -0.004488
H  -1.254640   1.148285  -0.024753
H  -0.341154  -1.732926   0.084831
H   0.715231  -0.263673  -0.135696
