%chk=/home/boittier/MDCM/nms_sampling/butadiene_geom.xyz.dir/butadiene_786.chk
%nproc=8
%mem=16000MB
#p B2PLYPD3/Def2QZVP 

butadiene

0 1
C  -3.833285   0.224823  -0.006832
C  -2.721230  -0.512489   0.048275
C  -1.393701   0.083455   0.041758
C  -0.261478  -0.655069   0.009525
H  -4.837685  -0.218936   0.068878
H  -3.775460   1.324308  -0.046917
H  -2.779483  -1.591056   0.173043
H  -1.340655   1.153378   0.048138
H  -0.277102  -1.740210   0.013412
H   0.716607  -0.223949  -0.001072
