%chk=/home/boittier/MDCM/nms_sampling/butadiene_geom.xyz.dir/butadiene_1406.chk
%nproc=8
%mem=16000MB
#p B2PLYPD3/Def2QZVP 

butadiene

0 1
C  -3.831831   0.243427  -0.006016
C  -2.716990  -0.535575   0.083306
C  -1.401659   0.069860   0.039885
C  -0.266294  -0.642099   0.002943
H  -4.851045  -0.169054  -0.138760
H  -3.737485   1.317506  -0.057650
H  -2.770026  -1.616957   0.077297
H  -1.321867   1.118540   0.067957
H  -0.235138  -1.701011   0.053345
H   0.713799  -0.201311  -0.103981

