%chk=/home/boittier/MDCM/nms_sampling/butadiene_geom.xyz.dir/butadiene_800.chk
%nproc=8
%mem=16000MB
#p B2PLYPD3/Def2QZVP 

butadiene

0 1
C  -3.826630   0.233421   0.038239
C  -2.725006  -0.511194   0.024870
C  -1.398378   0.052695  -0.010612
C  -0.263117  -0.642335   0.044318
H  -4.820156  -0.225542   0.006142
H  -3.747922   1.333200   0.048016
H  -2.777227  -1.586647  -0.033011
H  -1.315430   1.138442  -0.080276
H  -0.291465  -1.710487   0.152879
H   0.708639  -0.159078   0.054508

