%chk=/home/boittier/MDCM/nms_sampling/butadiene_geom.xyz.dir/butadiene_1448.chk
%nproc=8
%mem=16000MB
#p B2PLYPD3/Def2QZVP 

butadiene

0 1
C  -3.825380   0.231756   0.016328
C  -2.720031  -0.534000   0.020489
C  -1.405742   0.078482   0.007942
C  -0.264300  -0.649814   0.046740
H  -4.847897  -0.139757   0.165573
H  -3.725673   1.347712   0.071884
H  -2.792132  -1.592895  -0.048888
H  -1.362308   1.173031  -0.089440
H  -0.227074  -1.754773   0.142725
H   0.731716  -0.169490  -0.027851

