%chk=/home/boittier/MDCM/nms_sampling/butadiene_geom.xyz.dir/butadiene_772.chk
%nproc=8
%mem=16000MB
#p B2PLYPD3/Def2QZVP 

butadiene

0 1
C  -3.836781   0.226626   0.000493
C  -2.717423  -0.498768   0.050755
C  -1.384677   0.069839   0.040071
C  -0.269385  -0.657768   0.018065
H  -4.831335  -0.226997   0.049464
H  -3.803256   1.296376  -0.088181
H  -2.721349  -1.601449   0.138347
H  -1.339013   1.149024  -0.004602
H  -0.311347  -1.750169  -0.057203
H   0.685730  -0.159763   0.005521
