%chk=/home/boittier/MDCM/nms_sampling/butadiene_geom.xyz.dir/butadiene_2411.chk
%nproc=8
%mem=16000MB
#p B2PLYPD3/Def2QZVP 

butadiene

0 1
C  -3.828408   0.240656   0.076659
C  -2.741583  -0.508780  -0.032742
C  -1.382992   0.031274  -0.066455
C  -0.257231  -0.635914   0.065799
H  -4.716747  -0.283258   0.107769
H  -3.752228   1.395164   0.156463
H  -2.944612  -1.659779   0.046729
H  -1.309495   1.135051  -0.062216
H  -0.174587  -1.661610   0.272353
H   0.623607  -0.086738   0.295439

