%chk=/home/boittier/MDCM/nms_sampling/butadiene_geom.xyz.dir/butadiene_2863.chk
%nproc=8
%mem=16000MB
#p B2PLYPD3/Def2QZVP 

butadiene

0 1
C  -3.798329   0.259905   0.060269
C  -2.720556  -0.520902  -0.039483
C  -1.424746   0.043476  -0.013630
C  -0.254324  -0.651329   0.083606
H  -4.789563  -0.288516   0.111907
H  -3.699514   1.335731   0.298902
H  -2.808612  -1.613393  -0.119158
H  -1.513895   1.192756  -0.393387
H  -0.244287  -1.729940   0.270465
H   0.630692  -0.096599  -0.012927
