%chk=/home/boittier/MDCM/nms_sampling/butadiene_geom.xyz.dir/butadiene_472.chk
%nproc=8
%mem=16000MB
#p B2PLYPD3/Def2QZVP 

butadiene

0 1
C  -3.848999   0.216058   0.005911
C  -2.716467  -0.484195   0.050207
C  -1.377822   0.074404   0.038108
C  -0.262879  -0.666472   0.011332
H  -4.811846  -0.265337   0.008493
H  -3.825051   1.283112  -0.039090
H  -2.800904  -1.556098   0.031273
H  -1.302740   1.151371  -0.016474
H  -0.289650  -1.754013   0.117714
H   0.677456  -0.143223  -0.039590

