%chk=/home/boittier/MDCM/nms_sampling/butadiene_geom.xyz.dir/butadiene_2812.chk
%nproc=8
%mem=16000MB
#p B2PLYPD3/Def2QZVP 

butadiene

0 1
C  -3.782847   0.228461   0.069134
C  -2.716088  -0.517550  -0.040156
C  -1.426187   0.056389   0.002241
C  -0.298498  -0.643757   0.046137
H  -4.779815  -0.163325   0.041369
H  -3.677588   1.329018   0.143302
H  -2.828168  -1.549890  -0.042567
H  -1.281142   1.155675  -0.223180
H  -0.201246  -1.699821   0.402649
H   0.656457  -0.166362   0.029733

