%chk=/home/boittier/MDCM/nms_sampling/butadiene_geom.xyz.dir/butadiene_2198.chk
%nproc=8
%mem=16000MB
#p B2PLYPD3/Def2QZVP 

butadiene

0 1
C  -3.846520   0.254731  -0.018219
C  -2.731979  -0.498854   0.069455
C  -1.385331  -0.014456   0.055078
C  -0.230687  -0.618198   0.014669
H  -4.740261  -0.300603   0.021929
H  -3.798228   1.373349  -0.092714
H  -2.911210  -1.573724   0.231220
H  -1.411074   1.086400  -0.017194
H  -0.272319  -1.668115  -0.219140
H   0.667928  -0.050715  -0.005281
