%chk=/home/boittier/MDCM/nms_sampling/butadiene_geom.xyz.dir/butadiene_2072.chk
%nproc=8
%mem=16000MB
#p B2PLYPD3/Def2QZVP 

butadiene

0 1
C  -3.857246   0.214964  -0.028517
C  -2.708216  -0.480246   0.050491
C  -1.368674   0.113391   0.082011
C  -0.280727  -0.666708  -0.034963
H  -4.769915  -0.387933   0.161239
H  -3.910418   1.253220  -0.195184
H  -2.624048  -1.546139   0.374444
H  -1.348834   1.150551   0.182871
H  -0.453441  -1.829273  -0.029312
H   0.867865  -0.388562   0.111900

