%chk=/home/boittier/MDCM/nms_sampling/butadiene_geom.xyz.dir/butadiene_1595.chk
%nproc=8
%mem=16000MB
#p B2PLYPD3/Def2QZVP 

butadiene

0 1
C  -3.812135   0.251319   0.032806
C  -2.713879  -0.535886   0.015894
C  -1.393953   0.045963  -0.031486
C  -0.282510  -0.633985   0.062723
H  -4.800445  -0.210456   0.188718
H  -3.807035   1.329468   0.052246
H  -2.822491  -1.583775  -0.023490
H  -1.333170   1.121704  -0.043799
H  -0.299093  -1.672453   0.068419
H   0.688836  -0.155238   0.131130

