%chk=/home/boittier/MDCM/nms_sampling/butadiene_geom.xyz.dir/butadiene_2449.chk
%nproc=8
%mem=16000MB
#p B2PLYPD3/Def2QZVP 

butadiene

0 1
C  -3.843843   0.214245   0.033435
C  -2.701642  -0.481708   0.029057
C  -1.392163   0.095162  -0.059353
C  -0.294142  -0.665721   0.081140
H  -4.878721  -0.262306   0.039635
H  -3.806686   1.264379   0.359333
H  -2.557269  -1.605686  -0.228955
H  -1.294832   1.196260  -0.209607
H  -0.288085  -1.760293   0.257955
H   0.799889  -0.353635   0.025061
