%chk=/home/boittier/MDCM/nms_sampling/butadiene_geom.xyz.dir/butadiene_433.chk
%nproc=8
%mem=16000MB
#p B2PLYPD3/Def2QZVP 

butadiene

0 1
C  -3.842047   0.211760   0.032848
C  -2.718541  -0.490537   0.010924
C  -1.380361   0.086670  -0.006148
C  -0.272108  -0.662577   0.051828
H  -4.806710  -0.259061   0.157845
H  -3.818936   1.306513  -0.014626
H  -2.778932  -1.581066   0.020731
H  -1.282748   1.160673  -0.037266
H  -0.306118  -1.750270   0.072882
H   0.732928  -0.218669   0.062990

