%chk=/home/boittier/MDCM/nms_sampling/butadiene_geom.xyz.dir/butadiene_1763.chk
%nproc=8
%mem=16000MB
#p B2PLYPD3/Def2QZVP 

butadiene

0 1
C  -3.856331   0.222616   0.002101
C  -2.725275  -0.496238   0.071247
C  -1.386049   0.055041   0.040454
C  -0.246565  -0.648317   0.004103
H  -4.888545  -0.197704  -0.100433
H  -3.762863   1.318976  -0.097101
H  -2.808237  -1.603680   0.064953
H  -1.308199   1.131520   0.071527
H  -0.189168  -1.688841   0.080426
H   0.717386  -0.175276  -0.093818
