%chk=/home/boittier/MDCM/nms_sampling/butadiene_geom.xyz.dir/butadiene_663.chk
%nproc=8
%mem=16000MB
#p B2PLYPD3/Def2QZVP 

butadiene

0 1
C  -3.830009   0.218548   0.045172
C  -2.710528  -0.495768   0.007187
C  -1.389685   0.079637   0.001632
C  -0.276160  -0.657834   0.047047
H  -4.780467  -0.270959  -0.011121
H  -3.805057   1.321911   0.032189
H  -2.823171  -1.594347   0.027723
H  -1.327833   1.167065  -0.092640
H  -0.325501  -1.735022   0.151554
H   0.723982  -0.228885  -0.007096
