%chk=/home/boittier/MDCM/nms_sampling/butadiene_geom.xyz.dir/butadiene_1632.chk
%nproc=8
%mem=16000MB
#p B2PLYPD3/Def2QZVP 

butadiene

0 1
C  -3.826420   0.229559  -0.028402
C  -2.698470  -0.507089   0.095340
C  -1.386891   0.087215   0.044900
C  -0.288017  -0.661182  -0.004749
H  -4.773652  -0.300164  -0.059847
H  -3.866037   1.314994   0.011739
H  -2.782230  -1.580370   0.061533
H  -1.334717   1.170025   0.066911
H  -0.359010  -1.766268   0.067053
H   0.693455  -0.230363  -0.090164
