%chk=/home/boittier/MDCM/nms_sampling/butadiene_geom.xyz.dir/butadiene_264.chk
%nproc=8
%mem=16000MB
#p B2PLYPD3/Def2QZVP 

butadiene

0 1
C  -3.836452   0.224639   0.042283
C  -2.710474  -0.504923   0.011393
C  -1.384031   0.078970  -0.004920
C  -0.273130  -0.654647   0.047586
H  -4.819448  -0.243702   0.089986
H  -3.837543   1.289513  -0.059619
H  -2.766458  -1.578188   0.017707
H  -1.324532   1.166897  -0.020582
H  -0.352739  -1.724924   0.096993
H   0.734460  -0.248292   0.052851

