%chk=/home/boittier/MDCM/nms_sampling/butadiene_geom.xyz.dir/butadiene_418.chk
%nproc=8
%mem=16000MB
#p B2PLYPD3/Def2QZVP 

butadiene

0 1
C  -3.827859   0.219145  -0.001400
C  -2.714786  -0.499350   0.049921
C  -1.398763   0.070218   0.031703
C  -0.270769  -0.656090   0.018994
H  -4.804081  -0.204389   0.075881
H  -3.754904   1.305452  -0.092552
H  -2.805061  -1.572740   0.145067
H  -1.310799   1.167332   0.085476
H  -0.275210  -1.723010  -0.014077
H   0.683390  -0.188147  -0.020729
