%chk=/home/boittier/MDCM/nms_sampling/butadiene_geom.xyz.dir/butadiene_315.chk
%nproc=8
%mem=16000MB
#p B2PLYPD3/Def2QZVP 

butadiene

0 1
C  -3.838642   0.222976   0.020059
C  -2.718622  -0.510980   0.035549
C  -1.388279   0.082222   0.037222
C  -0.263339  -0.659637   0.021633
H  -4.843615  -0.199036  -0.038019
H  -3.777505   1.322749  -0.042711
H  -2.782140  -1.605684   0.069548
H  -1.324444   1.162124  -0.067219
H  -0.275163  -1.728612   0.078652
H   0.693028  -0.180033  -0.049779

