%chk=/home/boittier/MDCM/nms_sampling/butadiene_geom.xyz.dir/butadiene_1246.chk
%nproc=8
%mem=16000MB
#p B2PLYPD3/Def2QZVP 

butadiene

0 1
C  -3.837377   0.228375   0.044667
C  -2.731598  -0.492644  -0.001677
C  -1.381140   0.038270  -0.007331
C  -0.252441  -0.640507   0.043120
H  -4.783787  -0.253350   0.017574
H  -3.860402   1.345595   0.120607
H  -2.819897  -1.575606   0.040024
H  -1.307166   1.100471  -0.100366
H  -0.294385  -1.722835   0.234516
H   0.686746  -0.121645   0.057974

