%chk=/home/boittier/MDCM/nms_sampling/butadiene_geom.xyz.dir/butadiene_177.chk
%nproc=8
%mem=16000MB
#p B2PLYPD3/Def2QZVP 

butadiene

0 1
C  -3.844261   0.226390   0.029563
C  -2.715189  -0.513819   0.017093
C  -1.383011   0.079180  -0.007904
C  -0.266832  -0.657029   0.054173
H  -4.839489  -0.216166   0.110719
H  -3.813857   1.320540  -0.015258
H  -2.757860  -1.601234   0.065736
H  -1.306652   1.185654   0.016664
H  -0.306534  -1.724511   0.042643
H   0.722030  -0.196021   0.010712

