%chk=/home/boittier/MDCM/nms_sampling/butadiene_geom.xyz.dir/butadiene_2050.chk
%nproc=8
%mem=16000MB
#p B2PLYPD3/Def2QZVP 

butadiene

0 1
C  -3.863236   0.217748  -0.006953
C  -2.724423  -0.465260   0.115469
C  -1.373036   0.103709   0.063188
C  -0.252445  -0.680481  -0.011339
H  -4.648698  -0.462848  -0.229738
H  -4.040273   1.253454  -0.178455
H  -2.740020  -1.568265  -0.090682
H  -1.257872   1.248023  -0.014264
H  -0.338755  -1.831755   0.038445
H   0.772032  -0.308229  -0.152493

