%chk=/home/boittier/MDCM/nms_sampling/butadiene_geom.xyz.dir/butadiene_650.chk
%nproc=8
%mem=16000MB
#p B2PLYPD3/Def2QZVP 

butadiene

0 1
C  -3.847079   0.214189   0.026944
C  -2.712229  -0.482576   0.036247
C  -1.385580   0.070196  -0.003102
C  -0.266843  -0.662551   0.039807
H  -4.813311  -0.240811   0.022559
H  -3.845316   1.285787  -0.019773
H  -2.752130  -1.571549   0.037280
H  -1.272728   1.178088  -0.004365
H  -0.311803  -1.749557   0.057002
H   0.715952  -0.176145   0.044540

