%chk=/home/boittier/MDCM/nms_sampling/butadiene_geom.xyz.dir/butadiene_2742.chk
%nproc=8
%mem=16000MB
#p B2PLYPD3/Def2QZVP 

butadiene

0 1
C  -3.840971   0.199755  -0.026639
C  -2.698315  -0.473623   0.055014
C  -1.365971   0.098622   0.089016
C  -0.295816  -0.664042  -0.008005
H  -4.691174  -0.321275   0.053112
H  -3.854154   1.304745   0.075023
H  -2.703666  -1.554882   0.075852
H  -1.339063   1.137476  -0.207425
H  -0.574468  -1.723719   0.073173
H   0.755199  -0.361569  -0.072681
