%chk=/home/boittier/MDCM/nms_sampling/butadiene_geom.xyz.dir/butadiene_39.chk
%nproc=8
%mem=16000MB
#p B2PLYPD3/Def2QZVP 

butadiene

0 1
C  -3.838975   0.227160   0.005676
C  -2.728724  -0.508040   0.049074
C  -1.383604   0.060598   0.013117
C  -0.256235  -0.647582   0.029900
H  -4.854195  -0.188869   0.045722
H  -3.795490   1.299465  -0.038360
H  -2.819526  -1.605817   0.124681
H  -1.315915   1.163393   0.064545
H  -0.248332  -1.727072  -0.012277
H   0.707719  -0.148158   0.004212
