%chk=/home/boittier/MDCM/nms_sampling/butadiene_geom.xyz.dir/butadiene_1145.chk
%nproc=8
%mem=16000MB
#p B2PLYPD3/Def2QZVP 

butadiene

0 1
C  -3.848368   0.208743   0.030116
C  -2.714087  -0.485517   0.028471
C  -1.366840   0.092102  -0.012236
C  -0.275593  -0.658059   0.058258
H  -4.825631  -0.278680  -0.028403
H  -3.900044   1.276724   0.073675
H  -2.790339  -1.590500   0.049864
H  -1.249584   1.146874  -0.028533
H  -0.360685  -1.777650   0.059089
H   0.758415  -0.262580  -0.056500

