%chk=/home/boittier/MDCM/nms_sampling/butadiene_geom.xyz.dir/butadiene_44.chk
%nproc=8
%mem=16000MB
#p B2PLYPD3/Def2QZVP 

butadiene

0 1
C  -3.844223   0.215755   0.032113
C  -2.721217  -0.489781   0.020042
C  -1.384579   0.079722   0.006431
C  -0.263160  -0.664928   0.039115
H  -4.796699  -0.263309   0.065180
H  -3.815453   1.299039   0.022759
H  -2.800824  -1.572266  -0.052389
H  -1.287562   1.170094  -0.086920
H  -0.276172  -1.753927   0.182267
H   0.716991  -0.168772   0.003701

