%chk=/home/boittier/MDCM/nms_sampling/butadiene_geom.xyz.dir/butadiene_1542.chk
%nproc=8
%mem=16000MB
#p B2PLYPD3/Def2QZVP 

butadiene

0 1
C  -3.846808   0.238122  -0.016862
C  -2.731098  -0.516702   0.061876
C  -1.388767   0.057265   0.079010
C  -0.240463  -0.646034  -0.023045
H  -4.796769  -0.218410  -0.068292
H  -3.736205   1.324300  -0.031388
H  -2.801748  -1.581906   0.176991
H  -1.443559   1.139464   0.014480
H  -0.278304  -1.694022   0.128553
H   0.736662  -0.184196  -0.081345
