%chk=/home/boittier/MDCM/nms_sampling/butadiene_geom.xyz.dir/butadiene_2038.chk
%nproc=8
%mem=16000MB
#p B2PLYPD3/Def2QZVP 

butadiene

0 1
C  -3.869047   0.184613  -0.064736
C  -2.721304  -0.472377   0.128882
C  -1.361479   0.142935   0.043077
C  -0.277116  -0.696187  -0.012740
H  -4.750658  -0.299913  -0.043698
H  -3.721345   1.305478   0.065579
H  -2.690440  -1.586768   0.160815
H  -1.353511   1.219973   0.202428
H  -0.329090  -1.798991  -0.026179
H   0.765085  -0.307394  -0.112203

