%chk=/home/boittier/MDCM/nms_sampling/butadiene_geom.xyz.dir/butadiene_2412.chk
%nproc=8
%mem=16000MB
#p B2PLYPD3/Def2QZVP 

butadiene

0 1
C  -3.829049   0.282954   0.107589
C  -2.728356  -0.567060  -0.072147
C  -1.412858   0.027786  -0.038494
C  -0.240719  -0.613440   0.089602
H  -4.807670  -0.207464  -0.014483
H  -3.656714   1.330380   0.127563
H  -2.747854  -1.618371   0.019366
H  -1.483770   1.145668  -0.214812
H  -0.300090  -1.642764   0.302419
H   0.751545  -0.218144   0.027579
