%chk=/home/boittier/MDCM/nms_sampling/butadiene_geom.xyz.dir/butadiene_1032.chk
%nproc=8
%mem=16000MB
#p B2PLYPD3/Def2QZVP 

butadiene

0 1
C  -3.821730   0.220144   0.053961
C  -2.709835  -0.496669   0.016546
C  -1.390219   0.079567  -0.028630
C  -0.280455  -0.661070   0.056546
H  -4.761437  -0.268568   0.076526
H  -3.863355   1.318796  -0.098030
H  -2.839666  -1.570847  -0.014029
H  -1.360260   1.192305   0.001552
H  -0.283092  -1.738173   0.054620
H   0.719193  -0.242098   0.134237
