%chk=/home/boittier/MDCM/nms_sampling/butadiene_geom.xyz.dir/butadiene_779.chk
%nproc=8
%mem=16000MB
#p B2PLYPD3/Def2QZVP 

butadiene

0 1
C  -3.842367   0.232970   0.043132
C  -2.720270  -0.503413   0.003538
C  -1.391024   0.052114   0.004228
C  -0.252962  -0.647529   0.046000
H  -4.842870  -0.219333   0.000397
H  -3.808731   1.320891   0.041556
H  -2.818279  -1.589552   0.053165
H  -1.350512   1.127143  -0.081093
H  -0.214814  -1.726151   0.158316
H   0.700856  -0.146490  -0.016523

