%chk=/home/boittier/MDCM/nms_sampling/butadiene_geom.xyz.dir/butadiene_406.chk
%nproc=8
%mem=16000MB
#p B2PLYPD3/Def2QZVP 

butadiene

0 1
C  -3.838235   0.219943   0.035750
C  -2.713409  -0.500897   0.011433
C  -1.383301   0.082462   0.004512
C  -0.266203  -0.655613   0.055107
H  -4.824717  -0.234644   0.048469
H  -3.854587   1.293857   0.044448
H  -2.742052  -1.556469   0.014660
H  -1.342545   1.152599  -0.134447
H  -0.367828  -1.750054   0.071480
H   0.727995  -0.262628  -0.016636

