%chk=/home/boittier/MDCM/nms_sampling/butadiene_geom.xyz.dir/butadiene_2238.chk
%nproc=8
%mem=16000MB
#p B2PLYPD3/Def2QZVP 

butadiene

0 1
C  -3.823911   0.251985   0.026398
C  -2.737325  -0.507322   0.005922
C  -1.403083   0.007825   0.000786
C  -0.237071  -0.611560   0.062679
H  -4.768273  -0.270733   0.152179
H  -3.804514   1.351296   0.193785
H  -3.057943  -1.677793  -0.148768
H  -1.350691   1.125170  -0.228072
H  -0.083193  -1.699614   0.224639
H   0.685938  -0.159352  -0.074163

