%chk=/home/boittier/MDCM/nms_sampling/butadiene_geom.xyz.dir/butadiene_806.chk
%nproc=8
%mem=16000MB
#p B2PLYPD3/Def2QZVP 

butadiene

0 1
C  -3.842373   0.223353   0.016239
C  -2.719119  -0.509966   0.024998
C  -1.385106   0.087016   0.016846
C  -0.267429  -0.659742   0.035253
H  -4.829486  -0.243032   0.106917
H  -3.787224   1.327294  -0.020274
H  -2.727891  -1.583576   0.109347
H  -1.297959   1.163296  -0.021699
H  -0.305695  -1.744450   0.021395
H   0.706221  -0.212412   0.034064

