%chk=/home/boittier/MDCM/nms_sampling/butadiene_geom.xyz.dir/butadiene_1425.chk
%nproc=8
%mem=16000MB
#p B2PLYPD3/Def2QZVP 

butadiene

0 1
C  -3.864018   0.211330   0.004938
C  -2.715376  -0.474753   0.077586
C  -1.371748   0.087597   0.034958
C  -0.248927  -0.678780   0.009049
H  -4.801814  -0.302973  -0.104318
H  -3.885816   1.271661  -0.091808
H  -2.757786  -1.543044   0.030905
H  -1.366918   1.179419  -0.016704
H  -0.347143  -1.718541   0.004673
H   0.735644  -0.226204  -0.013807
