%chk=/home/boittier/MDCM/nms_sampling/butadiene_geom.xyz.dir/butadiene_460.chk
%nproc=8
%mem=16000MB
#p B2PLYPD3/Def2QZVP 

butadiene

0 1
C  -3.839222   0.212355   0.024764
C  -2.704637  -0.482208   0.018072
C  -1.387725   0.080756  -0.007231
C  -0.269257  -0.667250   0.047477
H  -4.800432  -0.258852   0.129735
H  -3.864574   1.298437   0.014428
H  -2.781756  -1.567227   0.069463
H  -1.348911   1.184270   0.018200
H  -0.332968  -1.755279   0.076668
H   0.714626  -0.226676   0.043588

