%chk=/home/boittier/MDCM/nms_sampling/butadiene_geom.xyz.dir/butadiene_1071.chk
%nproc=8
%mem=16000MB
#p B2PLYPD3/Def2QZVP 

butadiene

0 1
C  -3.815177   0.236737   0.071115
C  -2.710872  -0.512710  -0.024203
C  -1.404729   0.057265  -0.018274
C  -0.276751  -0.642696   0.067154
H  -4.813555  -0.224392   0.101280
H  -3.778763   1.330752  -0.032918
H  -2.798853  -1.578569   0.024668
H  -1.409526   1.154328  -0.142607
H  -0.236652  -1.738965   0.090730
H   0.721484  -0.225221   0.127804

