%chk=/home/boittier/MDCM/nms_sampling/butadiene_geom.xyz.dir/butadiene_608.chk
%nproc=8
%mem=16000MB
#p B2PLYPD3/Def2QZVP 

butadiene

0 1
C  -3.842531   0.236506   0.001796
C  -2.720236  -0.502309   0.049648
C  -1.381186   0.047408   0.028694
C  -0.260288  -0.642350   0.009229
H  -4.812598  -0.256355   0.066766
H  -3.814561   1.298213  -0.081656
H  -2.786993  -1.592238   0.121436
H  -1.340791   1.144579   0.093109
H  -0.311397  -1.740319   0.066090
H   0.702110  -0.150140   0.029289
