%chk=/home/boittier/MDCM/nms_sampling/butadiene_geom.xyz.dir/butadiene_1898.chk
%nproc=8
%mem=16000MB
#p B2PLYPD3/Def2QZVP 

butadiene

0 1
C  -3.839160   0.242901   0.020153
C  -2.725504  -0.538296   0.029388
C  -1.383145   0.057570   0.025658
C  -0.259490  -0.636347   0.025428
H  -4.826097  -0.141808   0.036907
H  -3.722709   1.332091  -0.118478
H  -2.778572  -1.575828   0.149200
H  -1.426918   1.112743   0.080556
H  -0.287478  -1.723123   0.038215
H   0.716199  -0.153610  -0.029016

