%chk=/home/boittier/MDCM/nms_sampling/butadiene_geom.xyz.dir/butadiene_2178.chk
%nproc=8
%mem=16000MB
#p B2PLYPD3/Def2QZVP 

butadiene

0 1
C  -3.857040   0.202270  -0.039402
C  -2.675935  -0.471729   0.085035
C  -1.380990   0.107818   0.080323
C  -0.284727  -0.680323  -0.041262
H  -4.750149  -0.277192   0.116553
H  -3.956363   1.258800  -0.263176
H  -2.722670  -1.488289   0.246539
H  -1.404850   1.156624   0.288302
H  -0.435719  -1.794407   0.015401
H   0.815285  -0.339956   0.003650
