%chk=/home/boittier/MDCM/nms_sampling/butadiene_geom.xyz.dir/butadiene_2084.chk
%nproc=8
%mem=16000MB
#p B2PLYPD3/Def2QZVP 

butadiene

0 1
C  -3.838546   0.269607  -0.027782
C  -2.741472  -0.527640   0.059100
C  -1.383281   0.007244   0.099131
C  -0.227118  -0.622592  -0.013433
H  -4.816102  -0.240294   0.063285
H  -3.862810   1.308786  -0.072335
H  -2.813275  -1.617606   0.170924
H  -1.386325   1.128034  -0.112410
H  -0.261466  -1.680519  -0.045683
H   0.623565  -0.073948  -0.064158

