%chk=/home/boittier/MDCM/nms_sampling/butadiene_geom.xyz.dir/butadiene_722.chk
%nproc=8
%mem=16000MB
#p B2PLYPD3/Def2QZVP 

butadiene

0 1
C  -3.831559   0.229412  -0.001517
C  -2.716941  -0.513720   0.046388
C  -1.391306   0.071253   0.030085
C  -0.267063  -0.649837   0.021135
H  -4.826717  -0.221051   0.104242
H  -3.778005   1.318208  -0.040439
H  -2.807596  -1.601391   0.090774
H  -1.360678   1.172704   0.025255
H  -0.294370  -1.715198   0.028617
H   0.739437  -0.215135  -0.008447
