%chk=/home/boittier/MDCM/nms_sampling/butadiene_geom.xyz.dir/butadiene_1872.chk
%nproc=8
%mem=16000MB
#p B2PLYPD3/Def2QZVP 

butadiene

0 1
C  -3.840836   0.198566   0.045763
C  -2.723658  -0.484080  -0.013982
C  -1.373216   0.117162  -0.006828
C  -0.276017  -0.674681   0.064217
H  -4.795904  -0.276707   0.085529
H  -3.755182   1.280764   0.139403
H  -2.753657  -1.605549   0.003519
H  -1.300145   1.196881  -0.161223
H  -0.365479  -1.791759   0.185951
H   0.709899  -0.266786  -0.022050

