%chk=/home/boittier/MDCM/nms_sampling/butadiene_geom.xyz.dir/butadiene_2035.chk
%nproc=8
%mem=16000MB
#p B2PLYPD3/Def2QZVP 

butadiene

0 1
C  -3.868009   0.190457  -0.006862
C  -2.727636  -0.455410   0.045005
C  -1.361199   0.103194   0.007802
C  -0.261206  -0.668659   0.025265
H  -4.839822  -0.322011   0.063451
H  -3.833805   1.239312   0.067317
H  -2.877253  -1.651236   0.280384
H  -1.215194   1.197521   0.091758
H  -0.228399  -1.774647  -0.052086
H   0.782586  -0.297261   0.089153
