%chk=/home/boittier/MDCM/nms_sampling/butadiene_geom.xyz.dir/butadiene_1310.chk
%nproc=8
%mem=16000MB
#p B2PLYPD3/Def2QZVP 

butadiene

0 1
C  -3.828717   0.226750   0.037808
C  -2.710300  -0.502980   0.006399
C  -1.399332   0.053758  -0.019868
C  -0.277383  -0.649740   0.056045
H  -4.810743  -0.192183   0.041584
H  -3.702769   1.319496   0.137051
H  -2.752091  -1.579486   0.071423
H  -1.310089   1.134874  -0.079892
H  -0.321536  -1.741024   0.124885
H   0.670300  -0.097041   0.067845
