%chk=/home/boittier/MDCM/nms_sampling/butadiene_geom.xyz.dir/butadiene_54.chk
%nproc=8
%mem=16000MB
#p B2PLYPD3/Def2QZVP 

butadiene

0 1
C  -3.833173   0.213505   0.028500
C  -2.712726  -0.484990   0.018981
C  -1.390222   0.081767   0.009337
C  -0.271413  -0.664128   0.033237
H  -4.776750  -0.298865   0.112105
H  -3.804670   1.312527  -0.044912
H  -2.767363  -1.551241   0.033557
H  -1.336553   1.177014  -0.019983
H  -0.362243  -1.758282   0.114499
H   0.723866  -0.229556   0.062137

