%chk=/home/boittier/MDCM/nms_sampling/butadiene_geom.xyz.dir/butadiene_711.chk
%nproc=8
%mem=16000MB
#p B2PLYPD3/Def2QZVP 

butadiene

0 1
C  -3.837881   0.238009   0.030292
C  -2.727463  -0.521560   0.028860
C  -1.386114   0.061319  -0.002147
C  -0.261811  -0.644793   0.036241
H  -4.844876  -0.210560   0.019001
H  -3.757554   1.323355   0.042574
H  -2.751893  -1.605211  -0.017873
H  -1.335096   1.167584  -0.053029
H  -0.251549  -1.720339   0.168208
H   0.694682  -0.172694   0.038815

