%chk=/home/boittier/MDCM/nms_sampling/butadiene_geom.xyz.dir/butadiene_1036.chk
%nproc=8
%mem=16000MB
#p B2PLYPD3/Def2QZVP 

butadiene

0 1
C  -3.846403   0.237926   0.049620
C  -2.731344  -0.506874   0.012548
C  -1.399154   0.047816  -0.022221
C  -0.245581  -0.649140   0.051322
H  -4.838437  -0.200577   0.037479
H  -3.806747   1.311526   0.090859
H  -2.750069  -1.579872  -0.132621
H  -1.284526   1.111571  -0.128116
H  -0.164986  -1.705487   0.259154
H   0.713083  -0.111448   0.064603
