%chk=/home/boittier/MDCM/nms_sampling/butadiene_geom.xyz.dir/butadiene_584.chk
%nproc=8
%mem=16000MB
#p B2PLYPD3/Def2QZVP 

butadiene

0 1
C  -3.852196   0.210925   0.004850
C  -2.715642  -0.476973   0.057749
C  -1.372937   0.069503   0.029212
C  -0.267058  -0.663928   0.024890
H  -4.805717  -0.280444  -0.026502
H  -3.840376   1.307924  -0.026344
H  -2.761361  -1.540794   0.082640
H  -1.289986   1.154808  -0.046717
H  -0.317930  -1.751308  -0.030481
H   0.687084  -0.168634  -0.018880
