%chk=/home/boittier/MDCM/nms_sampling/butadiene_geom.xyz.dir/butadiene_71.chk
%nproc=8
%mem=16000MB
#p B2PLYPD3/Def2QZVP 

butadiene

0 1
C  -3.828998   0.226137   0.030876
C  -2.718978  -0.499878   0.006414
C  -1.392617   0.066852   0.001548
C  -0.268387  -0.653620   0.045262
H  -4.815571  -0.226883   0.106092
H  -3.790779   1.310834   0.020472
H  -2.781243  -1.582130   0.106052
H  -1.348643   1.138104  -0.026929
H  -0.257570  -1.751737   0.084375
H   0.686067  -0.174522   0.046885
