%chk=/home/boittier/MDCM/nms_sampling/butadiene_geom.xyz.dir/butadiene_2259.chk
%nproc=8
%mem=16000MB
#p B2PLYPD3/Def2QZVP 

butadiene

0 1
C  -3.850985   0.223313  -0.025789
C  -2.748739  -0.497260   0.079194
C  -1.384776   0.010305   0.054001
C  -0.238570  -0.613079  -0.034177
H  -4.895905  -0.143800  -0.031417
H  -3.648155   1.342164  -0.084801
H  -2.850342  -1.589788   0.356335
H  -1.306313   1.156831   0.159607
H  -0.108609  -1.690612  -0.037580
H   0.691864  -0.182378   0.178415

