%chk=/home/boittier/MDCM/nms_sampling/butadiene_geom.xyz.dir/butadiene_2608.chk
%nproc=8
%mem=16000MB
#p B2PLYPD3/Def2QZVP 

butadiene

0 1
C  -3.889166   0.184095   0.069533
C  -2.740466  -0.460355  -0.028326
C  -1.341285   0.118113  -0.048255
C  -0.260907  -0.687372   0.098551
H  -4.777955  -0.327520   0.058391
H  -3.797345   1.296546   0.153812
H  -2.742544  -1.590195  -0.067003
H  -1.193204   1.198865  -0.070117
H  -0.254470  -1.772417   0.247175
H   0.722764  -0.225987  -0.126438

