%chk=/home/boittier/MDCM/nms_sampling/butadiene_geom.xyz.dir/butadiene_2203.chk
%nproc=8
%mem=16000MB
#p B2PLYPD3/Def2QZVP 

butadiene

0 1
C  -3.839190   0.239985   0.072821
C  -2.721146  -0.499709  -0.025309
C  -1.402445  -0.008959  -0.049566
C  -0.251839  -0.625107   0.107670
H  -4.917160  -0.108657   0.093645
H  -3.806538   1.355960   0.114971
H  -2.796101  -1.641486  -0.003583
H  -1.218368   1.100295  -0.234094
H  -0.151683  -1.651270  -0.023864
H   0.660856   0.014831   0.082997

