%chk=/home/boittier/MDCM/nms_sampling/butadiene_geom.xyz.dir/butadiene_2296.chk
%nproc=8
%mem=16000MB
#p B2PLYPD3/Def2QZVP 

butadiene

0 1
C  -3.868405   0.203012   0.023774
C  -2.722994  -0.430476  -0.017161
C  -1.365949   0.062955  -0.025997
C  -0.270274  -0.678819   0.065355
H  -4.786836  -0.390009   0.324477
H  -3.863171   1.265366   0.096441
H  -2.615111  -1.578228   0.135399
H  -1.211455   1.156469   0.084138
H  -0.293165  -1.761209   0.124875
H   0.683151  -0.148802   0.060822
