%chk=/home/boittier/MDCM/nms_sampling/butadiene_geom.xyz.dir/butadiene_510.chk
%nproc=8
%mem=16000MB
#p B2PLYPD3/Def2QZVP 

butadiene

0 1
C  -3.842858   0.222588   0.031904
C  -2.713563  -0.506181   0.006585
C  -1.387549   0.088861  -0.004242
C  -0.273538  -0.661475   0.052120
H  -4.811767  -0.247027   0.141243
H  -3.804956   1.293023   0.031646
H  -2.737847  -1.567033   0.055836
H  -1.287408   1.169188  -0.066366
H  -0.307540  -1.747584   0.071050
H   0.747155  -0.226173   0.065766
