%chk=/home/boittier/MDCM/nms_sampling/butadiene_geom.xyz.dir/butadiene_1655.chk
%nproc=8
%mem=16000MB
#p B2PLYPD3/Def2QZVP 

butadiene

0 1
C  -3.838565   0.212179   0.051434
C  -2.714031  -0.503479  -0.006591
C  -1.377537   0.096078  -0.012279
C  -0.274227  -0.665545   0.068307
H  -4.823342  -0.248241   0.099840
H  -3.838798   1.326547   0.052066
H  -2.705407  -1.552818  -0.030111
H  -1.318696   1.207284  -0.165701
H  -0.417224  -1.765307   0.102801
H   0.738415  -0.238725   0.032264

