%chk=/home/boittier/MDCM/nms_sampling/butadiene_geom.xyz.dir/butadiene_1345.chk
%nproc=8
%mem=16000MB
#p B2PLYPD3/Def2QZVP 

butadiene

0 1
C  -3.835400   0.241799   0.009514
C  -2.728770  -0.504046   0.042124
C  -1.391206   0.037712   0.009049
C  -0.251876  -0.643201   0.032238
H  -4.816949  -0.239119   0.107691
H  -3.823502   1.323542  -0.013786
H  -2.826167  -1.574777   0.107618
H  -1.373093   1.079548  -0.044044
H  -0.183969  -1.666191  -0.057210
H   0.706920  -0.139029   0.138152

