%chk=/home/boittier/MDCM/nms_sampling/butadiene_geom.xyz.dir/butadiene_2009.chk
%nproc=8
%mem=16000MB
#p B2PLYPD3/Def2QZVP 

butadiene

0 1
C  -3.790236   0.253799  -0.032873
C  -2.691212  -0.527657   0.119386
C  -1.432714   0.026574   0.037101
C  -0.285764  -0.619217  -0.021691
H  -4.846207  -0.116982   0.078824
H  -3.675204   1.284028  -0.279036
H  -2.897730  -1.610257   0.135634
H  -1.424900   1.039426   0.235366
H  -0.252992  -1.708780  -0.162499
H   0.680301  -0.141687   0.177755
