%chk=/home/boittier/MDCM/nms_sampling/butadiene_geom.xyz.dir/butadiene_1638.chk
%nproc=8
%mem=16000MB
#p B2PLYPD3/Def2QZVP 

butadiene

0 1
C  -3.828321   0.227873  -0.004230
C  -2.706997  -0.502180   0.058977
C  -1.390141   0.087775   0.057526
C  -0.283447  -0.657141  -0.010725
H  -4.758543  -0.280750   0.043882
H  -3.880652   1.298478  -0.130787
H  -2.771384  -1.610479   0.134715
H  -1.327212   1.153067  -0.011562
H  -0.309265  -1.750988   0.004975
H   0.741371  -0.286703   0.099069

