%chk=/home/boittier/MDCM/nms_sampling/butadiene_geom.xyz.dir/butadiene_1486.chk
%nproc=8
%mem=16000MB
#p B2PLYPD3/Def2QZVP 

butadiene

0 1
C  -3.851438   0.237695   0.046668
C  -2.729138  -0.522947   0.012564
C  -1.388690   0.052315  -0.010887
C  -0.245881  -0.633263   0.042635
H  -4.853790  -0.190097  -0.001681
H  -3.767287   1.330445  -0.074369
H  -2.793051  -1.610964   0.167742
H  -1.259624   1.134211   0.040793
H  -0.228374  -1.693385   0.022525
H   0.685332  -0.201625   0.118178
