%chk=/home/boittier/MDCM/nms_sampling/butadiene_geom.xyz.dir/butadiene_2793.chk
%nproc=8
%mem=16000MB
#p B2PLYPD3/Def2QZVP 

butadiene

0 1
C  -3.845255   0.267205   0.056726
C  -2.744027  -0.523767  -0.027086
C  -1.384056   0.011316  -0.019741
C  -0.236342  -0.615120   0.056505
H  -4.769219  -0.263972   0.165408
H  -3.775137   1.375293   0.088065
H  -2.805244  -1.646747  -0.062993
H  -1.443603   1.048116  -0.053064
H  -0.184342  -1.746625   0.358178
H   0.695765  -0.090630   0.017777
