%chk=/home/boittier/MDCM/nms_sampling/butadiene_geom.xyz.dir/butadiene_2641.chk
%nproc=8
%mem=16000MB
#p B2PLYPD3/Def2QZVP 

butadiene

0 1
C  -3.815008   0.199934   0.034889
C  -2.670889  -0.457795   0.017196
C  -1.392889   0.082706   0.019137
C  -0.310809  -0.672919   0.026658
H  -4.759952  -0.371758   0.082952
H  -3.858431   1.323587   0.061594
H  -2.845727  -1.526677  -0.225072
H  -1.400142   1.167350  -0.187462
H  -0.479655  -1.748783   0.373999
H   0.787733  -0.263499  -0.019097

