%chk=/home/boittier/MDCM/nms_sampling/butadiene_geom.xyz.dir/butadiene_1964.chk
%nproc=8
%mem=16000MB
#p B2PLYPD3/Def2QZVP 

butadiene

0 1
C  -3.859265   0.233787   0.063441
C  -2.710690  -0.488873   0.007789
C  -1.400828   0.054277  -0.058653
C  -0.245840  -0.651416   0.077882
H  -4.746877  -0.241238   0.088264
H  -3.846477   1.279513   0.135844
H  -2.833910  -1.550466  -0.225646
H  -1.431976   1.101743  -0.185388
H  -0.145946  -1.720589   0.221581
H   0.794054  -0.250139   0.149940
