%chk=/home/boittier/MDCM/nms_sampling/butadiene_geom.xyz.dir/butadiene_1270.chk
%nproc=8
%mem=16000MB
#p B2PLYPD3/Def2QZVP 

butadiene

0 1
C  -3.840054   0.230347   0.031761
C  -2.715888  -0.489552   0.022239
C  -1.391255   0.045989  -0.000967
C  -0.264826  -0.642862   0.038605
H  -4.783710  -0.325067   0.030358
H  -3.866803   1.319568   0.052048
H  -2.811666  -1.554678  -0.035007
H  -1.273662   1.158452  -0.038722
H  -0.283979  -1.714488   0.218955
H   0.765282  -0.219275  -0.014510
