%chk=/home/boittier/MDCM/nms_sampling/butadiene_geom.xyz.dir/butadiene_2216.chk
%nproc=8
%mem=16000MB
#p B2PLYPD3/Def2QZVP 

butadiene

0 1
C  -3.870390   0.189987  -0.033356
C  -2.695294  -0.420312   0.101655
C  -1.370433   0.072628   0.040722
C  -0.269845  -0.676274  -0.002952
H  -4.648023  -0.397855  -0.126703
H  -3.976169   1.207743   0.049743
H  -2.908891  -1.501828   0.104033
H  -1.298120   1.179825   0.141359
H  -0.329810  -1.753781   0.086280
H   0.797954  -0.299815  -0.176541

