%chk=/home/boittier/MDCM/nms_sampling/butadiene_geom.xyz.dir/butadiene_1087.chk
%nproc=8
%mem=16000MB
#p B2PLYPD3/Def2QZVP 

butadiene

0 1
C  -3.866042   0.213780  -0.013920
C  -2.719510  -0.471566   0.075405
C  -1.368252   0.078126   0.038328
C  -0.252945  -0.663463   0.014628
H  -4.815086  -0.373242   0.027865
H  -3.857676   1.304078  -0.098099
H  -2.760001  -1.572313   0.148160
H  -1.293371   1.151445   0.040633
H  -0.359021  -1.750733  -0.132237
H   0.750466  -0.234959   0.006008

