%chk=/home/boittier/MDCM/nms_sampling/butadiene_geom.xyz.dir/butadiene_2865.chk
%nproc=8
%mem=16000MB
#p B2PLYPD3/Def2QZVP 

butadiene

0 1
C  -3.811435   0.252931  -0.006850
C  -2.696864  -0.524593   0.095173
C  -1.432948   0.050592   0.055993
C  -0.273718  -0.641767  -0.017499
H  -4.786909  -0.159865  -0.073075
H  -3.699392   1.326336  -0.285412
H  -2.788767  -1.632563   0.225058
H  -1.485854   1.109883   0.047962
H  -0.152016  -1.668987  -0.242402
H   0.694445  -0.248160   0.193419
