%chk=/home/boittier/MDCM/nms_sampling/butadiene_geom.xyz.dir/butadiene_1749.chk
%nproc=8
%mem=16000MB
#p B2PLYPD3/Def2QZVP 

butadiene

0 1
C  -3.839243   0.218758   0.001459
C  -2.708409  -0.496370   0.059774
C  -1.387711   0.087799   0.060964
C  -0.289299  -0.667802  -0.004392
H  -4.733547  -0.280810  -0.010055
H  -3.762940   1.292104  -0.213113
H  -2.733517  -1.569443   0.186121
H  -1.233620   1.193012   0.037441
H  -0.332666  -1.747868  -0.076190
H   0.679639  -0.190155   0.032123
