%chk=/home/boittier/MDCM/nms_sampling/butadiene_geom.xyz.dir/butadiene_1305.chk
%nproc=8
%mem=16000MB
#p B2PLYPD3/Def2QZVP 

butadiene

0 1
C  -3.818943   0.238057  -0.027775
C  -2.734095  -0.525697   0.085339
C  -1.399651   0.049631   0.034902
C  -0.261224  -0.626301   0.006022
H  -4.824781  -0.178170   0.039853
H  -3.702383   1.337470  -0.044071
H  -2.773399  -1.629119   0.135378
H  -1.349021   1.116941   0.134923
H  -0.344179  -1.731980  -0.031012
H   0.761556  -0.170015  -0.042988

