%chk=/home/boittier/MDCM/nms_sampling/butadiene_geom.xyz.dir/butadiene_395.chk
%nproc=8
%mem=16000MB
#p B2PLYPD3/Def2QZVP 

butadiene

0 1
C  -3.837051   0.229017   0.035764
C  -2.721226  -0.496037   0.024982
C  -1.389933   0.053654  -0.001481
C  -0.254901  -0.645730   0.039579
H  -4.826777  -0.233128  -0.035214
H  -3.813536   1.287345   0.011097
H  -2.847360  -1.584253   0.069134
H  -1.338871   1.107451  -0.027497
H  -0.267713  -1.727340   0.099739
H   0.714187  -0.161075   0.028090
