%chk=/home/boittier/MDCM/nms_sampling/butadiene_geom.xyz.dir/butadiene_1494.chk
%nproc=8
%mem=16000MB
#p B2PLYPD3/Def2QZVP 

butadiene

0 1
C  -3.823082   0.241867   0.062373
C  -2.707503  -0.528115  -0.011266
C  -1.396635   0.065205  -0.026810
C  -0.273237  -0.641479   0.070433
H  -4.818864  -0.193300   0.028827
H  -3.837468   1.297518   0.076063
H  -2.805151  -1.592961   0.011670
H  -1.317156   1.141178  -0.135627
H  -0.320314  -1.746741   0.127585
H   0.688724  -0.185370   0.063176
