%chk=/home/boittier/MDCM/nms_sampling/butadiene_geom.xyz.dir/butadiene_2349.chk
%nproc=8
%mem=16000MB
#p B2PLYPD3/Def2QZVP 

butadiene

0 1
C  -3.843603   0.206490  -0.032806
C  -2.715405  -0.505317   0.118207
C  -1.356844   0.116661   0.078638
C  -0.293812  -0.660002  -0.005579
H  -4.713056  -0.289760  -0.230889
H  -3.806595   1.245054  -0.031203
H  -2.747192  -1.552109   0.104186
H  -1.257398   1.213141  -0.121475
H  -0.568506  -1.782542  -0.170580
H   0.784859  -0.316916  -0.136609
