%chk=/home/boittier/MDCM/nms_sampling/butadiene_geom.xyz.dir/butadiene_805.chk
%nproc=8
%mem=16000MB
#p B2PLYPD3/Def2QZVP 

butadiene

0 1
C  -3.834089   0.229542  -0.000147
C  -2.721115  -0.516402   0.051016
C  -1.382538   0.063889   0.038239
C  -0.264802  -0.642611   0.006682
H  -4.834000  -0.200554   0.029741
H  -3.769781   1.334507  -0.071541
H  -2.824983  -1.620998   0.135590
H  -1.348925   1.148282   0.064603
H  -0.309579  -1.721089   0.058057
H   0.702931  -0.180898  -0.004121
