%chk=/home/boittier/MDCM/nms_sampling/butadiene_geom.xyz.dir/butadiene_803.chk
%nproc=8
%mem=16000MB
#p B2PLYPD3/Def2QZVP 

butadiene

0 1
C  -3.838349   0.222649   0.004220
C  -2.718303  -0.508038   0.045877
C  -1.388881   0.062390   0.033927
C  -0.266210  -0.645188   0.023645
H  -4.861685  -0.186546   0.056394
H  -3.752322   1.328925  -0.081361
H  -2.782511  -1.590290   0.139576
H  -1.304317   1.144019   0.002396
H  -0.293902  -1.718772  -0.054745
H   0.724073  -0.178989   0.002641
