%chk=/home/boittier/MDCM/nms_sampling/butadiene_geom.xyz.dir/butadiene_2616.chk
%nproc=8
%mem=16000MB
#p B2PLYPD3/Def2QZVP 

butadiene

0 1
C  -3.833374   0.241721   0.083682
C  -2.741721  -0.500211  -0.039011
C  -1.396104   0.021480  -0.044858
C  -0.238634  -0.643072   0.079798
H  -4.820273  -0.224983   0.188596
H  -3.712141   1.365931  -0.112839
H  -2.779505  -1.523528  -0.006972
H  -1.449110   1.102881   0.055298
H  -0.118021  -1.762113   0.188896
H   0.589849  -0.027728   0.075018
