%chk=/home/boittier/MDCM/nms_sampling/butadiene_geom.xyz.dir/butadiene_158.chk
%nproc=8
%mem=16000MB
#p B2PLYPD3/Def2QZVP 

butadiene

0 1
C  -3.836544   0.234617   0.029660
C  -2.719285  -0.506637   0.027592
C  -1.395274   0.055780   0.004250
C  -0.266608  -0.646879   0.035072
H  -4.817699  -0.237397   0.008144
H  -3.746204   1.311445   0.054363
H  -2.762826  -1.588358  -0.006206
H  -1.312776   1.137392  -0.096507
H  -0.258805  -1.732791   0.149444
H   0.703546  -0.149385   0.043751
