%chk=/home/boittier/MDCM/nms_sampling/butadiene_geom.xyz.dir/butadiene_2338.chk
%nproc=8
%mem=16000MB
#p B2PLYPD3/Def2QZVP 

butadiene

0 1
C  -3.821082   0.187657   0.010876
C  -2.692686  -0.466781   0.013205
C  -1.380979   0.126558  -0.003579
C  -0.310412  -0.711840   0.056892
H  -4.821544  -0.249436   0.144514
H  -3.923308   1.275740   0.248492
H  -2.718294  -1.557060  -0.096621
H  -1.291685   1.281193  -0.070134
H  -0.293099  -1.745686   0.312662
H   0.670304  -0.209247  -0.174487

