%chk=/home/boittier/MDCM/nms_sampling/butadiene_geom.xyz.dir/butadiene_133.chk
%nproc=8
%mem=16000MB
#p B2PLYPD3/Def2QZVP 

butadiene

0 1
C  -3.843847   0.222042   0.008618
C  -2.719300  -0.495738   0.053404
C  -1.381994   0.061772   0.026171
C  -0.261096  -0.654053   0.015084
H  -4.811137  -0.241123   0.005146
H  -3.814222   1.313332  -0.091565
H  -2.835612  -1.573707   0.139834
H  -1.304332   1.161179   0.026392
H  -0.261762  -1.725870  -0.029171
H   0.684687  -0.158168   0.070715
