%chk=/home/boittier/MDCM/nms_sampling/butadiene_geom.xyz.dir/butadiene_833.chk
%nproc=8
%mem=16000MB
#p B2PLYPD3/Def2QZVP 

butadiene

0 1
C  -3.845207   0.226474   0.012079
C  -2.726805  -0.504751   0.035059
C  -1.390908   0.052258   0.017429
C  -0.253680  -0.643013   0.032391
H  -4.834235  -0.199676   0.091929
H  -3.767468   1.328259  -0.066513
H  -2.791345  -1.567177   0.104872
H  -1.291100   1.125765   0.057082
H  -0.232596  -1.701394   0.023984
H   0.712351  -0.174973  -0.016520
