%chk=/home/boittier/MDCM/nms_sampling/butadiene_geom.xyz.dir/butadiene_610.chk
%nproc=8
%mem=16000MB
#p B2PLYPD3/Def2QZVP 

butadiene

0 1
C  -3.831935   0.224953   0.004317
C  -2.713581  -0.495184   0.047156
C  -1.389034   0.073195   0.035469
C  -0.271402  -0.661264   0.026578
H  -4.826945  -0.238952   0.035900
H  -3.807659   1.294755  -0.034537
H  -2.751174  -1.600499   0.054554
H  -1.359014   1.154962  -0.036993
H  -0.294652  -1.744779   0.022732
H   0.690327  -0.176612  -0.072851
