%chk=/home/boittier/MDCM/nms_sampling/butadiene_geom.xyz.dir/butadiene_2280.chk
%nproc=8
%mem=16000MB
#p B2PLYPD3/Def2QZVP 

butadiene

0 1
C  -3.815525   0.206532   0.072045
C  -2.724457  -0.457113   0.014173
C  -1.391858   0.081817  -0.044598
C  -0.280707  -0.670126   0.065788
H  -4.622758  -0.348642   0.050314
H  -3.806425   1.289702  -0.134482
H  -2.782730  -1.605711  -0.097726
H  -1.375657   1.144667  -0.029659
H  -0.400075  -1.768241   0.067989
H   0.722732  -0.223963   0.172971

