%chk=/home/boittier/MDCM/nms_sampling/butadiene_geom.xyz.dir/butadiene_109.chk
%nproc=8
%mem=16000MB
#p B2PLYPD3/Def2QZVP 

butadiene

0 1
C  -3.833891   0.233780   0.029113
C  -2.725357  -0.518236   0.022030
C  -1.387851   0.069422  -0.016949
C  -0.262028  -0.644100   0.047740
H  -4.813812  -0.220950   0.094524
H  -3.724299   1.299286   0.025302
H  -2.822210  -1.619670   0.071467
H  -1.337755   1.134814   0.011428
H  -0.311950  -1.723620   0.065480
H   0.707498  -0.180491   0.097574

