%chk=/home/boittier/MDCM/nms_sampling/butadiene_geom.xyz.dir/butadiene_1900.chk
%nproc=8
%mem=16000MB
#p B2PLYPD3/Def2QZVP 

butadiene

0 1
C  -3.819131   0.230606  -0.005711
C  -2.739045  -0.527786   0.079368
C  -1.397513   0.064527   0.033891
C  -0.263592  -0.640855   0.006396
H  -4.796293  -0.156910  -0.053821
H  -3.632659   1.349872  -0.006551
H  -2.810746  -1.638477  -0.028307
H  -1.335566   1.156259  -0.023720
H  -0.271945  -1.716581   0.100890
H   0.676431  -0.133679  -0.039547

