%chk=/home/boittier/MDCM/nms_sampling/butadiene_geom.xyz.dir/butadiene_34.chk
%nproc=8
%mem=16000MB
#p B2PLYPD3/Def2QZVP 

butadiene

0 1
C  -3.827076   0.230042   0.003957
C  -2.722480  -0.506087   0.045001
C  -1.397183   0.052404   0.025358
C  -0.266167  -0.642701   0.019761
H  -4.823785  -0.202114   0.066447
H  -3.757170   1.319326  -0.024944
H  -2.767199  -1.593136   0.127683
H  -1.301229   1.137568  -0.007482
H  -0.272798  -1.709978   0.000258
H   0.672459  -0.174277   0.064585

