%chk=/home/boittier/MDCM/nms_sampling/butadiene_geom.xyz.dir/butadiene_20.chk
%nproc=8
%mem=16000MB
#p B2PLYPD3/Def2QZVP 

butadiene

0 1
C  -3.833733   0.217707  -0.003682
C  -2.724997  -0.504648   0.067337
C  -1.383743   0.085036   0.026283
C  -0.268263  -0.657512   0.018740
H  -4.812555  -0.234758  -0.030871
H  -3.743643   1.300220  -0.028609
H  -2.788530  -1.577900   0.092985
H  -1.320853   1.182405   0.056507
H  -0.312023  -1.738166   0.014150
H   0.692944  -0.221747  -0.059894
