%chk=/home/boittier/MDCM/nms_sampling/butadiene_geom.xyz.dir/butadiene_170.chk
%nproc=8
%mem=16000MB
#p B2PLYPD3/Def2QZVP 

butadiene

0 1
C  -3.843883   0.221975   0.039332
C  -2.717929  -0.496652   0.017769
C  -1.387788   0.080967   0.000345
C  -0.261773  -0.660250   0.042889
H  -4.806265  -0.247670   0.059443
H  -3.803043   1.295414  -0.062136
H  -2.716596  -1.589521   0.055649
H  -1.322019   1.157949  -0.051980
H  -0.336685  -1.755151   0.037009
H   0.706431  -0.215370   0.094453
