%chk=/home/boittier/MDCM/nms_sampling/butadiene_geom.xyz.dir/butadiene_1011.chk
%nproc=8
%mem=16000MB
#p B2PLYPD3/Def2QZVP 

butadiene

0 1
C  -3.847994   0.228317   0.018600
C  -2.726998  -0.498122   0.047484
C  -1.385663   0.054829   0.007792
C  -0.253309  -0.648643   0.020721
H  -4.848875  -0.256853  -0.049276
H  -3.775271   1.299288   0.076184
H  -2.845172  -1.577207  -0.009784
H  -1.305920   1.172717  -0.064970
H  -0.180012  -1.712598   0.179499
H   0.714564  -0.174564   0.046141

