%chk=/home/boittier/MDCM/nms_sampling/butadiene_geom.xyz.dir/butadiene_1648.chk
%nproc=8
%mem=16000MB
#p B2PLYPD3/Def2QZVP 

butadiene

0 1
C  -3.860504   0.195716   0.041057
C  -2.723505  -0.467707   0.007565
C  -1.374491   0.079892  -0.026212
C  -0.260667  -0.663746   0.066275
H  -4.848637  -0.241680   0.099908
H  -3.779062   1.289721  -0.017917
H  -2.804115  -1.585227   0.118556
H  -1.276225   1.180159   0.043539
H  -0.259437  -1.734649  -0.004003
H   0.777096  -0.228432   0.055738

