%chk=/home/boittier/MDCM/nms_sampling/butadiene_geom.xyz.dir/butadiene_1396.chk
%nproc=8
%mem=16000MB
#p B2PLYPD3/Def2QZVP 

butadiene

0 1
C  -3.827506   0.212840   0.046036
C  -2.716072  -0.493625   0.009825
C  -1.388438   0.092632  -0.037121
C  -0.277020  -0.667191   0.050858
H  -4.804075  -0.230179   0.100267
H  -3.838921   1.275162   0.004772
H  -2.800784  -1.551424   0.054053
H  -1.296424   1.158426   0.062792
H  -0.260378  -1.766045   0.139391
H   0.686278  -0.218424   0.158609

