%chk=/home/boittier/MDCM/nms_sampling/butadiene_geom.xyz.dir/butadiene_1826.chk
%nproc=8
%mem=16000MB
#p B2PLYPD3/Def2QZVP 

butadiene

0 1
C  -3.833690   0.206828   0.054980
C  -2.716664  -0.496277   0.002102
C  -1.376780   0.112433  -0.025373
C  -0.277763  -0.672574   0.070160
H  -4.829668  -0.232279  -0.048261
H  -3.792167   1.288941   0.134404
H  -2.758206  -1.597500   0.014347
H  -1.334424   1.160436  -0.153932
H  -0.351557  -1.790517   0.115795
H   0.693424  -0.229375   0.014545

