%chk=/home/boittier/MDCM/nms_sampling/butadiene_geom.xyz.dir/butadiene_654.chk
%nproc=8
%mem=16000MB
#p B2PLYPD3/Def2QZVP 

butadiene

0 1
C  -3.834646   0.236731   0.044898
C  -2.714467  -0.519204   0.007822
C  -1.390708   0.067165  -0.011455
C  -0.270733  -0.653190   0.051507
H  -4.817006  -0.221408   0.104207
H  -3.780380   1.322863  -0.045416
H  -2.756843  -1.577018   0.008870
H  -1.337006   1.146497  -0.021130
H  -0.289301  -1.719704   0.107442
H   0.696174  -0.151547   0.065564

