%chk=/home/boittier/MDCM/nms_sampling/butadiene_geom.xyz.dir/butadiene_2599.chk
%nproc=8
%mem=16000MB
#p B2PLYPD3/Def2QZVP 

butadiene

0 1
C  -3.886480   0.172165   0.029019
C  -2.698576  -0.440997   0.032622
C  -1.348022   0.106495  -0.044000
C  -0.266380  -0.688788   0.078543
H  -4.851957  -0.250207   0.065791
H  -3.962778   1.314953   0.282176
H  -2.729792  -1.541471  -0.239530
H  -1.331231   1.170810  -0.197582
H  -0.331747  -1.745400   0.219374
H   0.757347  -0.319760  -0.028504

