%chk=/home/boittier/MDCM/nms_sampling/butadiene_geom.xyz.dir/butadiene_796.chk
%nproc=8
%mem=16000MB
#p B2PLYPD3/Def2QZVP 

butadiene

0 1
C  -3.848115   0.228382  -0.001761
C  -2.729655  -0.507793   0.051041
C  -1.384569   0.053376   0.040638
C  -0.255504  -0.641785   0.016417
H  -4.822029  -0.196865   0.040592
H  -3.759449   1.325123  -0.033442
H  -2.755347  -1.586926   0.091657
H  -1.309252   1.150687  -0.022805
H  -0.265283  -1.734987   0.021184
H   0.718454  -0.161813  -0.031595
