%chk=/home/boittier/MDCM/nms_sampling/butadiene_geom.xyz.dir/butadiene_2625.chk
%nproc=8
%mem=16000MB
#p B2PLYPD3/Def2QZVP 

butadiene

0 1
C  -3.834030   0.221423  -0.022349
C  -2.693700  -0.471350   0.070340
C  -1.401862   0.081758   0.048814
C  -0.298058  -0.667693   0.006644
H  -4.667663  -0.387886   0.068746
H  -3.802048   1.281611   0.014851
H  -2.657466  -1.536793   0.138968
H  -1.294147   1.088990  -0.098029
H  -0.451016  -1.735301  -0.102487
H   0.800546  -0.260409   0.084843
