%chk=/home/boittier/MDCM/nms_sampling/butadiene_geom.xyz.dir/butadiene_1417.chk
%nproc=8
%mem=16000MB
#p B2PLYPD3/Def2QZVP 

butadiene

0 1
C  -3.834592   0.236780   0.020841
C  -2.721641  -0.523127   0.030127
C  -1.382867   0.051477  -0.021517
C  -0.257997  -0.628618   0.054850
H  -4.845852  -0.170429   0.052805
H  -3.706606   1.317603   0.174753
H  -2.868257  -1.622042  -0.037736
H  -1.401301   1.085619  -0.047690
H  -0.327456  -1.735989   0.176033
H   0.692880  -0.155244  -0.018170

