%chk=/home/boittier/MDCM/nms_sampling/butadiene_geom.xyz.dir/butadiene_5.chk
%nproc=8
%mem=16000MB
#p B2PLYPD3/Def2QZVP 

butadiene

0 1
C  -3.838501   0.236222   0.026092
C  -2.719981  -0.527377   0.026518
C  -1.388013   0.065653   0.007841
C  -0.263394  -0.644847   0.030227
H  -4.848525  -0.184444   0.070309
H  -3.781195   1.349306  -0.024811
H  -2.768290  -1.609658   0.075938
H  -1.321274   1.145525  -0.043361
H  -0.271753  -1.720377   0.059196
H   0.701005  -0.164479   0.117116
