%chk=/home/boittier/MDCM/nms_sampling/butadiene_geom.xyz.dir/butadiene_2375.chk
%nproc=8
%mem=16000MB
#p B2PLYPD3/Def2QZVP 

butadiene

0 1
C  -3.865983   0.210491   0.086215
C  -2.707276  -0.480747  -0.006342
C  -1.379730   0.109253  -0.036575
C  -0.261761  -0.669978   0.064012
H  -4.724483  -0.311382  -0.278571
H  -3.955970   1.203073   0.178005
H  -2.763057  -1.546615  -0.009847
H  -1.270160   1.229065  -0.202613
H  -0.351057  -1.776345   0.268493
H   0.824284  -0.396952   0.027764
