%chk=/home/boittier/MDCM/nms_sampling/butadiene_geom.xyz.dir/butadiene_239.chk
%nproc=8
%mem=16000MB
#p B2PLYPD3/Def2QZVP 

butadiene

0 1
C  -3.838874   0.233305   0.017311
C  -2.722244  -0.519274   0.024251
C  -1.392147   0.066153   0.006718
C  -0.262672  -0.648350   0.040951
H  -4.824798  -0.196587   0.167766
H  -3.738598   1.332289  -0.014438
H  -2.743648  -1.581199   0.032868
H  -1.339680   1.136193  -0.019488
H  -0.276642  -1.728531   0.060046
H   0.707253  -0.163604   0.043861
