%chk=/home/boittier/MDCM/nms_sampling/butadiene_geom.xyz.dir/butadiene_2541.chk
%nproc=8
%mem=16000MB
#p B2PLYPD3/Def2QZVP 

butadiene

0 1
C  -3.850324   0.201047  -0.045541
C  -2.703763  -0.488550   0.098881
C  -1.389857   0.141097   0.127376
C  -0.293960  -0.704784  -0.067411
H  -4.711555  -0.289924  -0.141622
H  -3.778527   1.267953  -0.125986
H  -2.546773  -1.544047   0.219374
H  -1.206992   1.251534   0.049387
H  -0.416947  -1.779601   0.108961
H   0.701187  -0.248978  -0.108642

