%chk=/home/boittier/MDCM/nms_sampling/butadiene_geom.xyz.dir/butadiene_1658.chk
%nproc=8
%mem=16000MB
#p B2PLYPD3/Def2QZVP 

butadiene

0 1
C  -3.851895   0.205817   0.045066
C  -2.712766  -0.461537  -0.012935
C  -1.374493   0.067545  -0.002802
C  -0.253146  -0.661346   0.049810
H  -4.830843  -0.291449   0.077587
H  -3.927198   1.273066   0.089349
H  -2.831206  -1.584071   0.083481
H  -1.305293   1.154273  -0.099417
H  -0.356228  -1.726499   0.176297
H   0.731143  -0.233863   0.049774
