%chk=/home/boittier/MDCM/nms_sampling/butadiene_geom.xyz.dir/butadiene_2208.chk
%nproc=8
%mem=16000MB
#p B2PLYPD3/Def2QZVP 

butadiene

0 1
C  -3.832213   0.178636   0.087553
C  -2.687163  -0.436915  -0.080184
C  -1.376953   0.093251  -0.029573
C  -0.308864  -0.697357   0.077203
H  -4.774006  -0.249298   0.314773
H  -3.750365   1.274016   0.028667
H  -2.722397  -1.543865   0.071142
H  -1.339485   1.167427  -0.192834
H  -0.390865  -1.708938   0.185406
H   0.594309  -0.178932   0.265419

