%chk=/home/boittier/MDCM/nms_sampling/butadiene_geom.xyz.dir/butadiene_97.chk
%nproc=8
%mem=16000MB
#p B2PLYPD3/Def2QZVP 

butadiene

0 1
C  -3.854260   0.211402   0.024747
C  -2.716861  -0.488459   0.023946
C  -1.371032   0.083926  -0.004391
C  -0.266720  -0.664318   0.044062
H  -4.837562  -0.242675   0.090257
H  -3.805314   1.283464   0.038331
H  -2.745350  -1.550954   0.075209
H  -1.318536   1.155560  -0.062312
H  -0.327577  -1.758441   0.030034
H   0.714762  -0.200748   0.107886
