%chk=/home/boittier/MDCM/nms_sampling/butadiene_geom.xyz.dir/butadiene_2583.chk
%nproc=8
%mem=16000MB
#p B2PLYPD3/Def2QZVP 

butadiene

0 1
C  -3.847883   0.208631  -0.059159
C  -2.702169  -0.497275   0.103327
C  -1.358055   0.098152   0.085286
C  -0.290287  -0.656209  -0.010534
H  -4.735412  -0.251452   0.023570
H  -4.007349   1.281975   0.040966
H  -2.784306  -1.602618   0.013588
H  -1.258613   1.245945   0.032269
H  -0.461517  -1.791756   0.085989
H   0.798362  -0.324736  -0.298309
