%chk=/home/boittier/MDCM/nms_sampling/butadiene_geom.xyz.dir/butadiene_392.chk
%nproc=8
%mem=16000MB
#p B2PLYPD3/Def2QZVP 

butadiene

0 1
C  -3.849140   0.222648   0.031658
C  -2.724584  -0.505931   0.014559
C  -1.377664   0.064167   0.009072
C  -0.257179  -0.646250   0.037084
H  -4.851249  -0.209978   0.065518
H  -3.803080   1.327087  -0.028218
H  -2.813691  -1.598007   0.102107
H  -1.277058   1.140331  -0.030068
H  -0.275978  -1.723809   0.067834
H   0.709462  -0.171674   0.058967
