%chk=/home/boittier/MDCM/nms_sampling/butadiene_geom.xyz.dir/butadiene_2762.chk
%nproc=8
%mem=16000MB
#p B2PLYPD3/Def2QZVP 

butadiene

0 1
C  -3.812232   0.221025  -0.082684
C  -2.731256  -0.539184   0.159452
C  -1.426384   0.053865   0.090445
C  -0.255850  -0.625656  -0.043071
H  -4.899594   0.006130  -0.078218
H  -3.493540   1.357897  -0.005306
H  -2.811858  -1.544568   0.032532
H  -1.370026   1.103109   0.066850
H  -0.227978  -1.711883  -0.022363
H   0.713362  -0.158948  -0.142902

