%chk=/home/boittier/MDCM/nms_sampling/butadiene_geom.xyz.dir/butadiene_1887.chk
%nproc=8
%mem=16000MB
#p B2PLYPD3/Def2QZVP 

butadiene

0 1
C  -3.858571   0.197035   0.002812
C  -2.723179  -0.468541   0.072126
C  -1.379489   0.090620   0.020884
C  -0.255093  -0.666039   0.007024
H  -4.821234  -0.297091  -0.012782
H  -3.790177   1.305812  -0.174066
H  -2.702328  -1.582030   0.146787
H  -1.230878   1.189894   0.166935
H  -0.388428  -1.769161  -0.036279
H   0.716612  -0.263637   0.058030
