%chk=/home/boittier/MDCM/nms_sampling/butadiene_geom.xyz.dir/butadiene_1959.chk
%nproc=8
%mem=16000MB
#p B2PLYPD3/Def2QZVP 

butadiene

0 1
C  -3.873533   0.210743  -0.019721
C  -2.707983  -0.463952   0.087183
C  -1.349933   0.096621   0.078154
C  -0.283675  -0.690469  -0.021613
H  -4.811622  -0.316289  -0.009940
H  -4.016233   1.213874  -0.107456
H  -2.728129  -1.545950  -0.086041
H  -1.170058   1.112284  -0.037117
H  -0.206019  -1.734100   0.168365
H   0.674095  -0.158234  -0.110027

