%chk=/home/boittier/MDCM/nms_sampling/butadiene_geom.xyz.dir/butadiene_250.chk
%nproc=8
%mem=16000MB
#p B2PLYPD3/Def2QZVP 

butadiene

0 1
C  -3.845650   0.222952   0.014177
C  -2.716532  -0.498790   0.050754
C  -1.377656   0.071801   0.013495
C  -0.269766  -0.660201   0.021477
H  -4.826056  -0.255312   0.007831
H  -3.850732   1.317352  -0.096206
H  -2.757964  -1.564417   0.112376
H  -1.292385   1.166334   0.081077
H  -0.281687  -1.730513   0.014549
H   0.708566  -0.174007   0.043695

