%chk=/home/boittier/MDCM/nms_sampling/butadiene_geom.xyz.dir/butadiene_1732.chk
%nproc=8
%mem=16000MB
#p B2PLYPD3/Def2QZVP 

butadiene

0 1
C  -3.822493   0.243720   0.046182
C  -2.714616  -0.530412  -0.007592
C  -1.396105   0.061027   0.000613
C  -0.260102  -0.637198   0.038362
H  -4.833350  -0.162310   0.141562
H  -3.802870   1.317198  -0.019451
H  -2.874289  -1.663061   0.068564
H  -1.405379   1.136301  -0.086869
H  -0.276663  -1.742527   0.133671
H   0.691500  -0.171147   0.170296
