%chk=/home/boittier/MDCM/nms_sampling/butadiene_geom.xyz.dir/butadiene_49.chk
%nproc=8
%mem=16000MB
#p B2PLYPD3/Def2QZVP 

butadiene

0 1
C  -3.842550   0.210633   0.010533
C  -2.716882  -0.493153   0.059961
C  -1.379242   0.088290   0.023190
C  -0.278165  -0.663875   0.017446
H  -4.790893  -0.254635  -0.011297
H  -3.772515   1.303641  -0.110494
H  -2.740857  -1.560636   0.073053
H  -1.276955   1.181259   0.036794
H  -0.336359  -1.736918  -0.001674
H   0.705609  -0.231392   0.028776
