%chk=/home/boittier/MDCM/nms_sampling/butadiene_geom.xyz.dir/butadiene_1097.chk
%nproc=8
%mem=16000MB
#p B2PLYPD3/Def2QZVP 

butadiene

0 1
C  -3.857311   0.199937  -0.011809
C  -2.702957  -0.456981   0.084197
C  -1.374598   0.073068   0.027893
C  -0.271259  -0.672037   0.017243
H  -4.841935  -0.263501  -0.087362
H  -3.864170   1.248811   0.025610
H  -2.801596  -1.553853   0.040304
H  -1.271868   1.190272   0.016213
H  -0.275025  -1.761394   0.022525
H   0.691700  -0.185332  -0.098544
