%chk=/home/boittier/MDCM/nms_sampling/butadiene_geom.xyz.dir/butadiene_1926.chk
%nproc=8
%mem=16000MB
#p B2PLYPD3/Def2QZVP 

butadiene

0 1
C  -3.814938   0.256461   0.065542
C  -2.711584  -0.550910   0.006976
C  -1.422474   0.043770  -0.063600
C  -0.271250  -0.635484   0.092185
H  -4.850065  -0.055874  -0.149491
H  -3.752028   1.357291   0.241028
H  -2.771340  -1.624819  -0.063060
H  -1.283982   1.060567  -0.089996
H  -0.124098  -1.695773   0.213733
H   0.621212  -0.057660  -0.083315

