%chk=/home/boittier/MDCM/nms_sampling/butadiene_geom.xyz.dir/butadiene_1379.chk
%nproc=8
%mem=16000MB
#p B2PLYPD3/Def2QZVP 

butadiene

0 1
C  -3.852151   0.207892   0.024079
C  -2.728547  -0.481339   0.028959
C  -1.375975   0.064981  -0.021597
C  -0.253451  -0.655143   0.052573
H  -4.860068  -0.196695   0.049026
H  -3.796074   1.282604   0.126057
H  -2.812492  -1.561120  -0.010227
H  -1.294724   1.103469  -0.005124
H  -0.276343  -1.713596   0.163183
H   0.738558  -0.161261  -0.007929
