%chk=/home/boittier/MDCM/nms_sampling/butadiene_geom.xyz.dir/butadiene_1858.chk
%nproc=8
%mem=16000MB
#p B2PLYPD3/Def2QZVP 

butadiene

0 1
C  -3.854636   0.204403   0.055507
C  -2.704796  -0.461717  -0.016088
C  -1.383248   0.084927  -0.014233
C  -0.265543  -0.685871   0.049105
H  -4.815964  -0.247517   0.166679
H  -3.880885   1.253298   0.001118
H  -2.745125  -1.560407   0.029673
H  -1.307358   1.146901  -0.109172
H  -0.284995  -1.737923   0.150192
H   0.697795  -0.150039   0.200957

