%chk=/home/boittier/MDCM/nms_sampling/butadiene_geom.xyz.dir/butadiene_1694.chk
%nproc=8
%mem=16000MB
#p B2PLYPD3/Def2QZVP 

butadiene

0 1
C  -3.826068   0.237807   0.009111
C  -2.726982  -0.519420   0.080741
C  -1.394819   0.046863   0.029166
C  -0.254584  -0.636441   0.010946
H  -4.891576  -0.171133  -0.117689
H  -3.736911   1.331419  -0.115397
H  -2.815045  -1.601568  -0.006733
H  -1.428004   1.137008   0.005676
H  -0.231507  -1.707162   0.023506
H   0.723513  -0.167338  -0.025593

