%chk=/home/boittier/MDCM/nms_sampling/butadiene_geom.xyz.dir/butadiene_2687.chk
%nproc=8
%mem=16000MB
#p B2PLYPD3/Def2QZVP 

butadiene

0 1
C  -3.843638   0.216326  -0.072182
C  -2.706778  -0.480337   0.147960
C  -1.367116   0.060742   0.065836
C  -0.281167  -0.642798  -0.026783
H  -4.779879  -0.284405  -0.200095
H  -3.956481   1.243633   0.062839
H  -2.876367  -1.577444   0.197066
H  -1.208986   1.194773   0.180623
H  -0.330097  -1.795231  -0.048405
H   0.706284  -0.239499  -0.198994
