%chk=/home/boittier/MDCM/nms_sampling/butadiene_geom.xyz.dir/butadiene_2530.chk
%nproc=8
%mem=16000MB
#p B2PLYPD3/Def2QZVP 

butadiene

0 1
C  -3.844087   0.243000   0.067256
C  -2.750080  -0.530176  -0.032681
C  -1.370521   0.038104  -0.046325
C  -0.217835  -0.628464   0.115018
H  -4.785198  -0.226554   0.294756
H  -3.814754   1.383681  -0.034306
H  -3.010576  -1.620661  -0.094602
H  -1.340548   1.067409  -0.073732
H  -0.312475  -1.679587   0.025208
H   0.641554  -0.049280  -0.042970

