%chk=/home/boittier/MDCM/nms_sampling/butadiene_geom.xyz.dir/butadiene_2265.chk
%nproc=8
%mem=16000MB
#p B2PLYPD3/Def2QZVP 

butadiene

0 1
C  -3.837612   0.220591   0.085676
C  -2.680051  -0.487049  -0.031515
C  -1.396717   0.098415  -0.093079
C  -0.297248  -0.694034   0.126648
H  -4.823669  -0.275800   0.201120
H  -3.742320   1.267140   0.078516
H  -2.592106  -1.525651  -0.081221
H  -1.363804   1.188986  -0.104472
H  -0.368438  -1.729489   0.021352
H   0.602285  -0.176456   0.144472
