%chk=/home/boittier/MDCM/nms_sampling/butadiene_geom.xyz.dir/butadiene_1890.chk
%nproc=8
%mem=16000MB
#p B2PLYPD3/Def2QZVP 

butadiene

0 1
C  -3.865954   0.204010   0.006333
C  -2.718766  -0.475250   0.041542
C  -1.359987   0.083961   0.017719
C  -0.260877  -0.660432   0.031473
H  -4.819240  -0.265616   0.151720
H  -3.918638   1.255039  -0.077709
H  -2.792858  -1.561849   0.060717
H  -1.256544   1.132263   0.029273
H  -0.373456  -1.730321  -0.003609
H   0.801049  -0.255731   0.029048
