%chk=/home/boittier/MDCM/nms_sampling/butadiene_geom.xyz.dir/butadiene_569.chk
%nproc=8
%mem=16000MB
#p B2PLYPD3/Def2QZVP 

butadiene

0 1
C  -3.844383   0.230418   0.006809
C  -2.721004  -0.498731   0.045539
C  -1.388912   0.056273   0.025960
C  -0.256754  -0.651389   0.016738
H  -4.833874  -0.242095   0.019729
H  -3.813515   1.307018  -0.005146
H  -2.763196  -1.585549   0.063450
H  -1.314322   1.156440   0.023602
H  -0.255076  -1.725642   0.126190
H   0.702459  -0.163994  -0.028222
