%chk=/home/boittier/MDCM/nms_sampling/butadiene_geom.xyz.dir/butadiene_953.chk
%nproc=8
%mem=16000MB
#p B2PLYPD3/Def2QZVP 

butadiene

0 1
C  -3.848012   0.210051   0.001420
C  -2.722194  -0.490260   0.067193
C  -1.381685   0.081210   0.029063
C  -0.266158  -0.659478   0.009555
H  -4.805206  -0.239796  -0.020567
H  -3.819029   1.294836  -0.035934
H  -2.761768  -1.559995   0.016840
H  -1.241057   1.182227  -0.001401
H  -0.300673  -1.743635   0.081485
H   0.732202  -0.227112   0.003499

