%chk=/home/boittier/MDCM/nms_sampling/butadiene_geom.xyz.dir/butadiene_2621.chk
%nproc=8
%mem=16000MB
#p B2PLYPD3/Def2QZVP 

butadiene

0 1
C  -3.856101   0.196435  -0.002076
C  -2.693410  -0.449527   0.066895
C  -1.372508   0.108965   0.034309
C  -0.263150  -0.702184  -0.003853
H  -4.806153  -0.345136   0.003031
H  -4.116692   1.278444  -0.078168
H  -2.788769  -1.580980   0.177841
H  -1.328155   1.212405  -0.014127
H  -0.347000  -1.728234  -0.066694
H   0.770259  -0.264255   0.203330
