%chk=/home/boittier/MDCM/nms_sampling/butadiene_geom.xyz.dir/butadiene_1324.chk
%nproc=8
%mem=16000MB
#p B2PLYPD3/Def2QZVP 

butadiene

0 1
C  -3.832636   0.225401   0.028001
C  -2.708001  -0.517935   0.027374
C  -1.399061   0.051801   0.011207
C  -0.272205  -0.633327   0.035374
H  -4.882769  -0.129967   0.022640
H  -3.716788   1.360693   0.025305
H  -2.764560  -1.617471  -0.053663
H  -1.294255   1.143670  -0.062026
H  -0.316446  -1.711148   0.201198
H   0.709914  -0.188600  -0.051636

