%chk=/home/boittier/MDCM/nms_sampling/butadiene_geom.xyz.dir/butadiene_769.chk
%nproc=8
%mem=16000MB
#p B2PLYPD3/Def2QZVP 

butadiene

0 1
C  -3.854435   0.216692   0.000922
C  -2.712944  -0.481416   0.047220
C  -1.383439   0.074789   0.031581
C  -0.263821  -0.666208   0.020555
H  -4.807803  -0.271635   0.073262
H  -3.858577   1.282298  -0.096550
H  -2.719704  -1.547882   0.139279
H  -1.279115   1.176978   0.087990
H  -0.272378  -1.738674  -0.002422
H   0.698692  -0.223373  -0.037019
