%chk=/home/boittier/MDCM/nms_sampling/butadiene_geom.xyz.dir/butadiene_456.chk
%nproc=8
%mem=16000MB
#p B2PLYPD3/Def2QZVP 

butadiene

0 1
C  -3.848528   0.215073  -0.005010
C  -2.716476  -0.490563   0.053139
C  -1.370958   0.076723   0.036164
C  -0.266608  -0.653347   0.017383
H  -4.839762  -0.269833   0.038899
H  -3.857608   1.296652  -0.022015
H  -2.793967  -1.584049   0.101208
H  -1.284979   1.156028   0.033816
H  -0.350094  -1.745872   0.044891
H   0.736664  -0.235385  -0.067882

