%chk=/home/boittier/MDCM/nms_sampling/butadiene_geom.xyz.dir/butadiene_184.chk
%nproc=8
%mem=16000MB
#p B2PLYPD3/Def2QZVP 

butadiene

0 1
C  -3.844025   0.225243   0.021909
C  -2.727945  -0.503514   0.025934
C  -1.378168   0.065437   0.012889
C  -0.251896  -0.648063   0.041676
H  -4.831100  -0.232409   0.050517
H  -3.831814   1.300720   0.041149
H  -2.831474  -1.593472   0.001033
H  -1.314706   1.136786  -0.073928
H  -0.307825  -1.704224   0.119340
H   0.727434  -0.194679  -0.052046
