%chk=/home/boittier/MDCM/nms_sampling/butadiene_geom.xyz.dir/butadiene_2341.chk
%nproc=8
%mem=16000MB
#p B2PLYPD3/Def2QZVP 

butadiene

0 1
C  -3.811012   0.239779   0.059591
C  -2.732749  -0.542326  -0.026296
C  -1.415872   0.076121  -0.081067
C  -0.263729  -0.640739   0.100144
H  -4.896640  -0.098478   0.291585
H  -3.705583   1.323283   0.096495
H  -2.691961  -1.634319   0.030634
H  -1.310214   1.142291   0.045594
H  -0.180323  -1.688306   0.089257
H   0.675697  -0.253006   0.176403

