%chk=/home/boittier/MDCM/nms_sampling/butadiene_geom.xyz.dir/butadiene_2867.chk
%nproc=8
%mem=16000MB
#p B2PLYPD3/Def2QZVP 

butadiene

0 1
C  -3.790065   0.269987   0.056453
C  -2.726633  -0.549839  -0.008779
C  -1.405583   0.036351  -0.021566
C  -0.272512  -0.621484   0.040026
H  -4.764108  -0.271076  -0.083972
H  -3.736049   1.330130   0.242785
H  -2.841539  -1.676619   0.001498
H  -1.326289   1.123292  -0.127165
H  -0.421989  -1.642962   0.406262
H   0.638302  -0.131598   0.061512

