%chk=/home/boittier/MDCM/nms_sampling/butadiene_geom.xyz.dir/butadiene_1432.chk
%nproc=8
%mem=16000MB
#p B2PLYPD3/Def2QZVP 

butadiene

0 1
C  -3.828259   0.237040  -0.006646
C  -2.735366  -0.530810   0.052905
C  -1.391697   0.084807   0.018368
C  -0.256509  -0.648563   0.019647
H  -4.801894  -0.193227   0.062575
H  -3.712929   1.302795   0.032600
H  -2.789862  -1.625236   0.189369
H  -1.384506   1.139524   0.023940
H  -0.270870  -1.740089  -0.039209
H   0.693252  -0.207737   0.090552

