%chk=/home/boittier/MDCM/nms_sampling/butadiene_geom.xyz.dir/butadiene_401.chk
%nproc=8
%mem=16000MB
#p B2PLYPD3/Def2QZVP 

butadiene

0 1
C  -3.834250   0.234301   0.037562
C  -2.721385  -0.517313   0.016772
C  -1.393843   0.062826  -0.008994
C  -0.254296  -0.644350   0.056413
H  -4.855135  -0.195423   0.024835
H  -3.778965   1.312290   0.062672
H  -2.805275  -1.591225  -0.011544
H  -1.368263   1.135864  -0.086090
H  -0.282168  -1.735791   0.117399
H   0.721789  -0.175209  -0.018184
