%chk=/home/boittier/MDCM/nms_sampling/butadiene_geom.xyz.dir/butadiene_1058.chk
%nproc=8
%mem=16000MB
#p B2PLYPD3/Def2QZVP 

butadiene

0 1
C  -3.821749   0.235353   0.055934
C  -2.724876  -0.520321  -0.012124
C  -1.399230   0.074039  -0.001046
C  -0.258196  -0.649693   0.051010
H  -4.818971  -0.246065   0.133669
H  -3.753458   1.329714  -0.089685
H  -2.817474  -1.617658   0.065979
H  -1.399423   1.186836  -0.090671
H  -0.300970  -1.724782   0.057908
H   0.734419  -0.214376   0.134692
