%chk=/home/boittier/MDCM/nms_sampling/butadiene_geom.xyz.dir/butadiene_1489.chk
%nproc=8
%mem=16000MB
#p B2PLYPD3/Def2QZVP 

butadiene

0 1
C  -3.820085   0.243960   0.034541
C  -2.721906  -0.510487   0.005135
C  -1.395963   0.036817  -0.006926
C  -0.276958  -0.632376   0.060225
H  -4.755537  -0.273721   0.193885
H  -3.745460   1.318743  -0.037903
H  -2.778232  -1.590324   0.009560
H  -1.345305   1.152963  -0.021492
H  -0.323556  -1.721500   0.059692
H   0.729002  -0.164084   0.017228
