%chk=/home/boittier/MDCM/nms_sampling/butadiene_geom.xyz.dir/butadiene_1317.chk
%nproc=8
%mem=16000MB
#p B2PLYPD3/Def2QZVP 

butadiene

0 1
C  -3.874289   0.220870  -0.014400
C  -2.711594  -0.491713   0.081167
C  -1.367912   0.076938   0.038979
C  -0.252293  -0.658063   0.011309
H  -4.836126  -0.254235  -0.115780
H  -3.919676   1.263892  -0.016178
H  -2.754210  -1.585161   0.174002
H  -1.284661   1.187815   0.060922
H  -0.320406  -1.753334  -0.055781
H   0.764328  -0.242759  -0.094997

