%chk=/home/boittier/MDCM/nms_sampling/butadiene_geom.xyz.dir/butadiene_2197.chk
%nproc=8
%mem=16000MB
#p B2PLYPD3/Def2QZVP 

butadiene

0 1
C  -3.833310   0.172194  -0.030337
C  -2.714057  -0.461689   0.101443
C  -1.378788   0.132997   0.021242
C  -0.286803  -0.697243   0.009990
H  -4.767897  -0.267107   0.021019
H  -3.719563   1.300423  -0.208323
H  -2.689313  -1.549115   0.296507
H  -1.294649   1.229873   0.350219
H  -0.477833  -1.735239  -0.234714
H   0.680663  -0.295794  -0.015637
