%chk=/home/boittier/MDCM/nms_sampling/butadiene_geom.xyz.dir/butadiene_2131.chk
%nproc=8
%mem=16000MB
#p B2PLYPD3/Def2QZVP 

butadiene

0 1
C  -3.809881   0.207025   0.035409
C  -2.695047  -0.486749  -0.008548
C  -1.401660   0.052911  -0.005696
C  -0.297315  -0.650054   0.038767
H  -4.795394  -0.081086   0.248261
H  -3.764484   1.268098  -0.108580
H  -2.784963  -1.554483   0.125287
H  -1.337779   1.172806   0.162175
H  -0.354032  -1.743656   0.162758
H   0.650603  -0.161871   0.077370

