%chk=/home/boittier/MDCM/nms_sampling/butadiene_geom.xyz.dir/butadiene_2686.chk
%nproc=8
%mem=16000MB
#p B2PLYPD3/Def2QZVP 

butadiene

0 1
C  -3.851573   0.183485   0.000668
C  -2.694128  -0.492053   0.061387
C  -1.359790   0.146679   0.095652
C  -0.302840  -0.690952  -0.025205
H  -4.846672  -0.144634  -0.247457
H  -3.820754   1.265808  -0.181288
H  -2.744548  -1.598522   0.280505
H  -1.305584   1.195178   0.058755
H  -0.352434  -1.764175   0.034730
H   0.719813  -0.309077  -0.173751
