%chk=/home/boittier/MDCM/nms_sampling/butadiene_geom.xyz.dir/butadiene_1005.chk
%nproc=8
%mem=16000MB
#p B2PLYPD3/Def2QZVP 

butadiene

0 1
C  -3.819525   0.248279   0.020469
C  -2.722795  -0.532630   0.059389
C  -1.399086   0.049190   0.010444
C  -0.271384  -0.633977   0.021715
H  -4.777040  -0.209851   0.002922
H  -3.717188   1.306162  -0.184725
H  -2.806097  -1.605965   0.076957
H  -1.320402   1.145839   0.073170
H  -0.332825  -1.698290  -0.052406
H   0.706078  -0.139643   0.100469
