%chk=/home/boittier/MDCM/nms_sampling/butadiene_geom.xyz.dir/butadiene_1456.chk
%nproc=8
%mem=16000MB
#p B2PLYPD3/Def2QZVP 

butadiene

0 1
C  -3.816686   0.246022   0.039390
C  -2.722156  -0.526943   0.006428
C  -1.391514   0.060745   0.019743
C  -0.266716  -0.650008   0.033584
H  -4.810580  -0.213120   0.013114
H  -3.830890   1.343597   0.034149
H  -2.810744  -1.623845  -0.001757
H  -1.403457   1.113551  -0.132936
H  -0.288413  -1.719291   0.212330
H   0.693486  -0.095594  -0.011620

