%chk=/home/boittier/MDCM/nms_sampling/butadiene_geom.xyz.dir/butadiene_2346.chk
%nproc=8
%mem=16000MB
#p B2PLYPD3/Def2QZVP 

butadiene

0 1
C  -3.813152   0.201506   0.029366
C  -2.720234  -0.501261   0.046029
C  -1.400632   0.079037   0.034666
C  -0.282375  -0.661566   0.012603
H  -4.888926  -0.135031  -0.130417
H  -3.633039   1.297384  -0.071258
H  -2.758059  -1.502934   0.083894
H  -1.308771   1.180977  -0.137160
H  -0.341084  -1.670984   0.014570
H   0.716550  -0.184626   0.087449
