%chk=/home/boittier/MDCM/nms_sampling/butadiene_geom.xyz.dir/butadiene_696.chk
%nproc=8
%mem=16000MB
#p B2PLYPD3/Def2QZVP 

butadiene

0 1
C  -3.841495   0.238290   0.025379
C  -2.723862  -0.509031   0.029257
C  -1.380509   0.060330  -0.009855
C  -0.256759  -0.649180   0.044995
H  -4.790861  -0.241823   0.117208
H  -3.832003   1.298930  -0.000321
H  -2.812675  -1.601846   0.017008
H  -1.360338   1.121960  -0.025754
H  -0.261640  -1.731074   0.051274
H   0.671518  -0.155832   0.100915

