%chk=/home/boittier/MDCM/nms_sampling/butadiene_geom.xyz.dir/butadiene_478.chk
%nproc=8
%mem=16000MB
#p B2PLYPD3/Def2QZVP 

butadiene

0 1
C  -3.840022   0.232621   0.024004
C  -2.725438  -0.505555   0.015909
C  -1.378765   0.053666   0.001823
C  -0.264577  -0.647328   0.039159
H  -4.831419  -0.241104   0.123946
H  -3.784357   1.319120   0.000427
H  -2.802632  -1.597146   0.089007
H  -1.298594   1.124916   0.022455
H  -0.259678  -1.719056   0.100718
H   0.667897  -0.113342   0.044965
