%chk=/home/boittier/MDCM/nms_sampling/butadiene_geom.xyz.dir/butadiene_1229.chk
%nproc=8
%mem=16000MB
#p B2PLYPD3/Def2QZVP 

butadiene

0 1
C  -3.830448   0.235262  -0.012214
C  -2.712789  -0.505990   0.063977
C  -1.406150   0.042775   0.046488
C  -0.275511  -0.642390   0.015486
H  -4.793555  -0.202777  -0.044016
H  -3.716848   1.301842   0.009606
H  -2.779356  -1.576797   0.107985
H  -1.284104   1.144863   0.024368
H  -0.232306  -1.705955   0.041620
H   0.701956  -0.136420  -0.165143

