%chk=/home/boittier/MDCM/nms_sampling/butadiene_geom.xyz.dir/butadiene_940.chk
%nproc=8
%mem=16000MB
#p B2PLYPD3/Def2QZVP 

butadiene

0 1
C  -3.841837   0.217813   0.027060
C  -2.712689  -0.499766   0.023457
C  -1.378641   0.085529  -0.000628
C  -0.276061  -0.662450   0.043461
H  -4.810069  -0.258114   0.055241
H  -3.797675   1.310182  -0.010010
H  -2.766493  -1.593206   0.122902
H  -1.282709   1.169426  -0.009261
H  -0.355699  -1.737826   0.006181
H   0.704247  -0.191153   0.066612
