%chk=/home/boittier/MDCM/nms_sampling/butadiene_geom.xyz.dir/butadiene_2358.chk
%nproc=8
%mem=16000MB
#p B2PLYPD3/Def2QZVP 

butadiene

0 1
C  -3.817863   0.210894  -0.031339
C  -2.712689  -0.461664   0.068063
C  -1.390089   0.058539   0.102041
C  -0.277715  -0.645058  -0.011916
H  -4.768971  -0.357849  -0.142571
H  -3.976133   1.328908   0.027050
H  -2.787987  -1.557423   0.220078
H  -1.254883   1.106315  -0.041634
H  -0.376783  -1.775810   0.041392
H   0.737419  -0.290660  -0.290592
