%chk=/home/boittier/MDCM/nms_sampling/butadiene_geom.xyz.dir/butadiene_1679.chk
%nproc=8
%mem=16000MB
#p B2PLYPD3/Def2QZVP 

butadiene

0 1
C  -3.828393   0.219359   0.001891
C  -2.704775  -0.502531   0.050462
C  -1.379909   0.090445   0.051267
C  -0.283850  -0.668018   0.000736
H  -4.773991  -0.243157   0.022825
H  -3.851052   1.301458  -0.191115
H  -2.810490  -1.571664   0.181580
H  -1.372129   1.182746   0.140053
H  -0.339147  -1.718151   0.022822
H   0.685147  -0.233317  -0.048731
