%chk=/home/boittier/MDCM/nms_sampling/butadiene_geom.xyz.dir/butadiene_2873.chk
%nproc=8
%mem=16000MB
#p B2PLYPD3/Def2QZVP 

butadiene

0 1
C  -3.863571   0.210796  -0.025158
C  -2.704186  -0.471753   0.073348
C  -1.372359   0.088852   0.026085
C  -0.254269  -0.691901   0.002498
H  -4.835330  -0.285065   0.085312
H  -4.023557   1.306746  -0.048792
H  -2.818054  -1.623953   0.320417
H  -1.260131   1.203248   0.133522
H  -0.235081  -1.692688  -0.171804
H   0.672065  -0.145698   0.178122
