%chk=/home/boittier/MDCM/nms_sampling/butadiene_geom.xyz.dir/butadiene_102.chk
%nproc=8
%mem=16000MB
#p B2PLYPD3/Def2QZVP 

butadiene

0 1
C  -3.835611   0.231848   0.005138
C  -2.722005  -0.504444   0.051273
C  -1.384263   0.058427   0.020626
C  -0.261874  -0.647554   0.026434
H  -4.816845  -0.235996   0.000755
H  -3.831304   1.282593  -0.030052
H  -2.828151  -1.586795   0.147910
H  -1.313013   1.150615   0.029872
H  -0.275138  -1.713093  -0.033256
H   0.695087  -0.176749   0.000966

