%chk=/home/boittier/MDCM/nms_sampling/butadiene_geom.xyz.dir/butadiene_2318.chk
%nproc=8
%mem=16000MB
#p B2PLYPD3/Def2QZVP 

butadiene

0 1
C  -3.833515   0.231618   0.097236
C  -2.710079  -0.549807  -0.016816
C  -1.384113   0.059593  -0.081136
C  -0.267835  -0.618708   0.095286
H  -4.867815  -0.143541  -0.057677
H  -3.829819   1.402829   0.067890
H  -2.861801  -1.599834  -0.142640
H  -1.250289   1.183348  -0.023202
H  -0.410724  -1.730288   0.288303
H   0.761661  -0.230356   0.021900

