%chk=/home/boittier/MDCM/nms_sampling/butadiene_geom.xyz.dir/butadiene_323.chk
%nproc=8
%mem=16000MB
#p B2PLYPD3/Def2QZVP 

butadiene

0 1
C  -3.833796   0.227905   0.001906
C  -2.718767  -0.505875   0.043202
C  -1.388987   0.074040   0.023784
C  -0.275327  -0.656232   0.021214
H  -4.798688  -0.239306   0.102480
H  -3.783918   1.324737  -0.053683
H  -2.747688  -1.589448   0.116109
H  -1.324094   1.139173   0.073742
H  -0.259469  -1.743391   0.041473
H   0.705427  -0.179576   0.002896

