%chk=/home/boittier/MDCM/nms_sampling/butadiene_geom.xyz.dir/butadiene_848.chk
%nproc=8
%mem=16000MB
#p B2PLYPD3/Def2QZVP 

butadiene

0 1
C  -3.846956   0.222918  -0.007008
C  -2.711518  -0.501878   0.059679
C  -1.376194   0.084300   0.024457
C  -0.270051  -0.663810   0.015230
H  -4.799085  -0.280115   0.063172
H  -3.847533   1.313520  -0.048957
H  -2.759770  -1.580442   0.148347
H  -1.312900   1.187348   0.085594
H  -0.355649  -1.744728  -0.016359
H   0.712928  -0.202269   0.031899

