%chk=/home/boittier/MDCM/nms_sampling/butadiene_geom.xyz.dir/butadiene_53.chk
%nproc=8
%mem=16000MB
#p B2PLYPD3/Def2QZVP 

butadiene

0 1
C  -3.836457   0.241251   0.000264
C  -2.723431  -0.512410   0.056314
C  -1.387191   0.046465   0.019746
C  -0.257615  -0.641667   0.024452
H  -4.810625  -0.220302   0.046112
H  -3.860209   1.303770   0.011793
H  -2.809911  -1.590558   0.031385
H  -1.332409   1.138197  -0.009443
H  -0.255058  -1.724634   0.053826
H   0.712850  -0.139471  -0.008574

