%chk=/home/boittier/MDCM/nms_sampling/butadiene_geom.xyz.dir/butadiene_2336.chk
%nproc=8
%mem=16000MB
#p B2PLYPD3/Def2QZVP 

butadiene

0 1
C  -3.798117   0.232700   0.072865
C  -2.720705  -0.522839  -0.038760
C  -1.428351   0.054112  -0.035558
C  -0.257787  -0.619253   0.062249
H  -4.798815  -0.142598   0.362243
H  -3.635322   1.289749  -0.075006
H  -2.907477  -1.574937  -0.127772
H  -1.435206   1.105823  -0.083860
H  -0.315504  -1.754876   0.254401
H   0.748884  -0.278278   0.263026
