%chk=/home/boittier/MDCM/nms_sampling/butadiene_geom.xyz.dir/butadiene_1351.chk
%nproc=8
%mem=16000MB
#p B2PLYPD3/Def2QZVP 

butadiene

0 1
C  -3.843509   0.238930  -0.024845
C  -2.737215  -0.526648   0.086591
C  -1.379759   0.044614   0.034718
C  -0.246207  -0.627223   0.007552
H  -4.826285  -0.163573  -0.001036
H  -3.825128   1.295034   0.043709
H  -2.847643  -1.602735   0.028466
H  -1.280978   1.142501   0.026692
H  -0.292689  -1.704429   0.057649
H   0.745768  -0.157961  -0.068691
