%chk=/home/boittier/MDCM/nms_sampling/butadiene_geom.xyz.dir/butadiene_136.chk
%nproc=8
%mem=16000MB
#p B2PLYPD3/Def2QZVP 

butadiene

0 1
C  -3.837375   0.224443   0.018612
C  -2.708700  -0.496120   0.038905
C  -1.380226   0.081105   0.016497
C  -0.277763  -0.659593   0.026567
H  -4.781078  -0.298365  -0.005227
H  -3.840980   1.280873  -0.060554
H  -2.782561  -1.595366   0.143620
H  -1.301601   1.176652   0.034687
H  -0.376657  -1.761068   0.010701
H   0.710200  -0.207173   0.027430

