%chk=/home/boittier/MDCM/nms_sampling/butadiene_geom.xyz.dir/butadiene_2851.chk
%nproc=8
%mem=16000MB
#p B2PLYPD3/Def2QZVP 

butadiene

0 1
C  -3.861168   0.205781   0.017890
C  -2.698733  -0.436296   0.028523
C  -1.383316   0.088114   0.024872
C  -0.259539  -0.685203   0.053478
H  -4.765807  -0.437343   0.046077
H  -3.979007   1.243485   0.076282
H  -2.855134  -1.535692  -0.106433
H  -1.321247   1.107743  -0.167558
H  -0.237026  -1.714553   0.128963
H   0.767794  -0.305792  -0.197812

