%chk=/home/boittier/MDCM/nms_sampling/butadiene_geom.xyz.dir/butadiene_1475.chk
%nproc=8
%mem=16000MB
#p B2PLYPD3/Def2QZVP 

butadiene

0 1
C  -3.840062   0.233505  -0.002617
C  -2.735126  -0.512425   0.059897
C  -1.390081   0.055145   0.030847
C  -0.244028  -0.639668   0.020092
H  -4.850291  -0.218203   0.035678
H  -3.826342   1.352848  -0.085603
H  -2.764532  -1.603622   0.175169
H  -1.372802   1.129822   0.015886
H  -0.265507  -1.696799  -0.127131
H   0.794132  -0.221225   0.055226
