%chk=/home/boittier/MDCM/nms_sampling/butadiene_geom.xyz.dir/butadiene_299.chk
%nproc=8
%mem=16000MB
#p B2PLYPD3/Def2QZVP 

butadiene

0 1
C  -3.836307   0.234688   0.006503
C  -2.723591  -0.507965   0.056701
C  -1.388049   0.056663   0.039476
C  -0.261111  -0.646666   0.008503
H  -4.782609  -0.224897  -0.082996
H  -3.819227   1.307213  -0.052385
H  -2.839390  -1.589600   0.121718
H  -1.353628   1.139727   0.010161
H  -0.216408  -1.716123   0.049399
H   0.708921  -0.177723  -0.036786

