%chk=/home/boittier/MDCM/nms_sampling/butadiene_geom.xyz.dir/butadiene_538.chk
%nproc=8
%mem=16000MB
#p B2PLYPD3/Def2QZVP 

butadiene

0 1
C  -3.843808   0.217074   0.007998
C  -2.706875  -0.495621   0.041800
C  -1.384047   0.082737   0.038955
C  -0.270377  -0.659924   0.009228
H  -4.800084  -0.246396   0.004783
H  -3.836181   1.295853  -0.052137
H  -2.791995  -1.562621   0.130922
H  -1.336311   1.165378   0.015422
H  -0.336529  -1.746155   0.079691
H   0.741604  -0.242784  -0.003227
