%chk=/home/boittier/MDCM/nms_sampling/butadiene_geom.xyz.dir/butadiene_1458.chk
%nproc=8
%mem=16000MB
#p B2PLYPD3/Def2QZVP 

butadiene

0 1
C  -3.834390   0.225498   0.002654
C  -2.696891  -0.497602   0.066577
C  -1.380639   0.096118   0.061904
C  -0.290252  -0.676649   0.002229
H  -4.769970  -0.333567  -0.048143
H  -3.894016   1.327434  -0.171945
H  -2.716691  -1.591888   0.012365
H  -1.327741   1.169491   0.003300
H  -0.396883  -1.743769   0.056398
H   0.710517  -0.200412  -0.127185
