%chk=/home/boittier/MDCM/nms_sampling/butadiene_geom.xyz.dir/butadiene_687.chk
%nproc=8
%mem=16000MB
#p B2PLYPD3/Def2QZVP 

butadiene

0 1
C  -3.843081   0.234399   0.008231
C  -2.729236  -0.510554   0.032782
C  -1.392500   0.054820   0.025878
C  -0.244066  -0.642068   0.026699
H  -4.812195  -0.214423   0.032776
H  -3.791447   1.324153   0.056684
H  -2.812033  -1.582696   0.093739
H  -1.372715   1.125400  -0.031768
H  -0.250264  -1.739568   0.107932
H   0.737089  -0.172348  -0.046948
