%chk=/home/boittier/MDCM/nms_sampling/butadiene_geom.xyz.dir/butadiene_152.chk
%nproc=8
%mem=16000MB
#p B2PLYPD3/Def2QZVP 

butadiene

0 1
C  -3.843050   0.226945   0.036848
C  -2.727851  -0.504987   0.023462
C  -1.376724   0.066792  -0.010660
C  -0.259173  -0.651040   0.043618
H  -4.801615  -0.231112   0.043218
H  -3.823246   1.296409  -0.045096
H  -2.798032  -1.594254   0.058376
H  -1.295135   1.136867   0.026897
H  -0.322081  -1.720385   0.074144
H   0.705898  -0.157879   0.068740

