%chk=/home/boittier/MDCM/nms_sampling/butadiene_geom.xyz.dir/butadiene_2149.chk
%nproc=8
%mem=16000MB
#p B2PLYPD3/Def2QZVP 

butadiene

0 1
C  -3.847047   0.185390   0.080174
C  -2.715366  -0.424689  -0.041575
C  -1.374496   0.099605  -0.028764
C  -0.284863  -0.695669   0.076056
H  -4.802055  -0.449282   0.195683
H  -3.786545   1.305106   0.072805
H  -2.667130  -1.509966  -0.229004
H  -1.297089   1.146647  -0.223672
H  -0.287834  -1.791947   0.364776
H   0.681277  -0.230789   0.050386

