%chk=/home/boittier/MDCM/nms_sampling/butadiene_geom.xyz.dir/butadiene_1755.chk
%nproc=8
%mem=16000MB
#p B2PLYPD3/Def2QZVP 

butadiene

0 1
C  -3.821455   0.228089   0.052863
C  -2.730576  -0.524729   0.002944
C  -1.380544   0.067129  -0.048219
C  -0.264006  -0.640555   0.059722
H  -4.801762  -0.218862   0.100955
H  -3.753491   1.358871   0.062729
H  -2.859084  -1.583207   0.006734
H  -1.372761   1.159367   0.014096
H  -0.371924  -1.735133   0.179672
H   0.706063  -0.167973   0.167064

