%chk=/home/boittier/MDCM/nms_sampling/butadiene_geom.xyz.dir/butadiene_2839.chk
%nproc=8
%mem=16000MB
#p B2PLYPD3/Def2QZVP 

butadiene

0 1
C  -3.860038   0.264494   0.026547
C  -2.752328  -0.548058   0.024678
C  -1.349384   0.021486  -0.043638
C  -0.232063  -0.615507   0.061130
H  -4.798633  -0.259582   0.240416
H  -3.852931   1.333597   0.087962
H  -2.887935  -1.587162  -0.061894
H  -1.302800   1.112297  -0.048805
H  -0.328366  -1.648022   0.071951
H   0.696150  -0.083004   0.218795

