%chk=/home/boittier/MDCM/nms_sampling/butadiene_geom.xyz.dir/butadiene_832.chk
%nproc=8
%mem=16000MB
#p B2PLYPD3/Def2QZVP 

butadiene

0 1
C  -3.831559   0.225007  -0.002835
C  -2.723837  -0.509440   0.070127
C  -1.397348   0.063325   0.032370
C  -0.259195  -0.646763   0.016613
H  -4.839327  -0.200189  -0.046910
H  -3.704334   1.321408  -0.033744
H  -2.795404  -1.563496   0.053203
H  -1.335478   1.145110   0.013161
H  -0.282463  -1.729630   0.023774
H   0.691944  -0.173490  -0.070336

