%chk=/home/boittier/MDCM/nms_sampling/butadiene_geom.xyz.dir/butadiene_893.chk
%nproc=8
%mem=16000MB
#p B2PLYPD3/Def2QZVP 

butadiene

0 1
C  -3.834475   0.215041   0.032892
C  -2.716701  -0.490051   0.007620
C  -1.386638   0.091104  -0.013726
C  -0.271926  -0.671308   0.055183
H  -4.802895  -0.267796   0.136432
H  -3.834731   1.296403   0.040825
H  -2.767242  -1.584142   0.038129
H  -1.319567   1.176651  -0.009724
H  -0.292894  -1.736125   0.116087
H   0.717086  -0.217789   0.032827

