%chk=/home/boittier/MDCM/nms_sampling/butadiene_geom.xyz.dir/butadiene_2066.chk
%nproc=8
%mem=16000MB
#p B2PLYPD3/Def2QZVP 

butadiene

0 1
C  -3.835688   0.216748  -0.036977
C  -2.717209  -0.527558   0.082505
C  -1.391413   0.081489   0.073725
C  -0.270281  -0.644526  -0.001905
H  -4.852122  -0.089492   0.098954
H  -3.758545   1.335671   0.010529
H  -2.776224  -1.670003  -0.073490
H  -1.186170   1.198900  -0.076509
H  -0.365061  -1.769951   0.105658
H   0.694049  -0.142409  -0.168136
