%chk=/home/boittier/MDCM/nms_sampling/butadiene_geom.xyz.dir/butadiene_2778.chk
%nproc=8
%mem=16000MB
#p B2PLYPD3/Def2QZVP 

butadiene

0 1
C  -3.854155   0.214419   0.102230
C  -2.724197  -0.459527  -0.038292
C  -1.389972   0.068563  -0.107416
C  -0.256720  -0.672285   0.111213
H  -4.765425  -0.398086   0.165156
H  -3.887089   1.330434  -0.024217
H  -2.591532  -1.479175  -0.032547
H  -1.263544   1.182754   0.076308
H  -0.283319  -1.791547   0.136572
H   0.695882  -0.229160   0.212350
