%chk=/home/boittier/MDCM/nms_sampling/butadiene_geom.xyz.dir/butadiene_1499.chk
%nproc=8
%mem=16000MB
#p B2PLYPD3/Def2QZVP 

butadiene

0 1
C  -3.837800   0.208208   0.000124
C  -2.712767  -0.496913   0.062672
C  -1.376439   0.099615   0.019574
C  -0.276403  -0.669796   0.017952
H  -4.808420  -0.207696   0.000915
H  -3.816049   1.294617  -0.100196
H  -2.718275  -1.573578   0.190934
H  -1.364445   1.204361   0.126761
H  -0.397659  -1.796023  -0.069559
H   0.714686  -0.216022   0.029631

