%chk=/home/boittier/MDCM/nms_sampling/butadiene_geom.xyz.dir/butadiene_508.chk
%nproc=8
%mem=16000MB
#p B2PLYPD3/Def2QZVP 

butadiene

0 1
C  -3.849783   0.214482   0.027053
C  -2.711696  -0.484956   0.030174
C  -1.376733   0.076084   0.009528
C  -0.272281  -0.663090   0.030712
H  -4.820511  -0.258458   0.001820
H  -3.839808   1.291111   0.029600
H  -2.768059  -1.590485   0.035715
H  -1.260369   1.162865  -0.085790
H  -0.312677  -1.742482   0.109186
H   0.704409  -0.178472   0.061615
