%chk=/home/boittier/MDCM/nms_sampling/butadiene_geom.xyz.dir/butadiene_1415.chk
%nproc=8
%mem=16000MB
#p B2PLYPD3/Def2QZVP 

butadiene

0 1
C  -3.857732   0.213425   0.023109
C  -2.711229  -0.472924   0.029214
C  -1.380692   0.082190   0.034989
C  -0.264025  -0.676693   0.022916
H  -4.839628  -0.298880  -0.073727
H  -3.895814   1.279061  -0.032130
H  -2.681445  -1.541395   0.133639
H  -1.260351   1.164505  -0.024398
H  -0.291247  -1.783632   0.085601
H   0.709119  -0.163297  -0.075498
