%chk=/home/boittier/MDCM/nms_sampling/butadiene_geom.xyz.dir/butadiene_831.chk
%nproc=8
%mem=16000MB
#p B2PLYPD3/Def2QZVP 

butadiene

0 1
C  -3.837528   0.216514   0.042627
C  -2.712616  -0.486960   0.010017
C  -1.382010   0.090603  -0.005315
C  -0.278295  -0.673889   0.052051
H  -4.801205  -0.289287   0.018692
H  -3.814367   1.296301   0.030789
H  -2.745580  -1.583513   0.004721
H  -1.328455   1.172789  -0.058352
H  -0.290804  -1.742193   0.152458
H   0.685616  -0.205703  -0.025408

