%chk=/home/boittier/MDCM/nms_sampling/butadiene_geom.xyz.dir/butadiene_1208.chk
%nproc=8
%mem=16000MB
#p B2PLYPD3/Def2QZVP 

butadiene

0 1
C  -3.850059   0.218492   0.003000
C  -2.710748  -0.482218   0.045508
C  -1.385695   0.073643   0.034332
C  -0.256130  -0.662302   0.029689
H  -4.786597  -0.317771   0.070530
H  -3.902951   1.331963   0.011769
H  -2.833623  -1.545703  -0.035365
H  -1.359133   1.160015  -0.079135
H  -0.247787  -1.755980   0.096302
H   0.746461  -0.244283  -0.105066

