%chk=/home/boittier/MDCM/nms_sampling/butadiene_geom.xyz.dir/butadiene_677.chk
%nproc=8
%mem=16000MB
#p B2PLYPD3/Def2QZVP 

butadiene

0 1
C  -3.846432   0.221923   0.031449
C  -2.712577  -0.494509   0.016819
C  -1.381502   0.078880   0.011298
C  -0.261479  -0.660167   0.033829
H  -4.813102  -0.259753   0.067266
H  -3.890547   1.292031   0.005758
H  -2.774985  -1.578912   0.023131
H  -1.300024   1.151341  -0.086411
H  -0.316437  -1.734504   0.132943
H   0.700478  -0.231147   0.059315
