%chk=/home/boittier/MDCM/nms_sampling/butadiene_geom.xyz.dir/butadiene_635.chk
%nproc=8
%mem=16000MB
#p B2PLYPD3/Def2QZVP 

butadiene

0 1
C  -3.836524   0.237275   0.038475
C  -2.718865  -0.519811   0.023597
C  -1.395392   0.063767  -0.015857
C  -0.260985  -0.639323   0.047149
H  -4.810595  -0.216823   0.028020
H  -3.761037   1.332004  -0.027028
H  -2.766255  -1.602877   0.052804
H  -1.364446   1.123409   0.028923
H  -0.305626  -1.746349   0.080593
H   0.743167  -0.212404   0.059410

