%chk=/home/boittier/MDCM/nms_sampling/butadiene_geom.xyz.dir/butadiene_544.chk
%nproc=8
%mem=16000MB
#p B2PLYPD3/Def2QZVP 

butadiene

0 1
C  -3.835971   0.231806   0.001514
C  -2.719975  -0.519948   0.057873
C  -1.386063   0.069207   0.026647
C  -0.264829  -0.645367   0.016484
H  -4.834831  -0.192293   0.020975
H  -3.733288   1.318430  -0.093887
H  -2.819552  -1.623853   0.124894
H  -1.346790   1.149846   0.093391
H  -0.285739  -1.743322   0.001537
H   0.684320  -0.162902  -0.012301

