%chk=/home/boittier/MDCM/nms_sampling/butadiene_geom.xyz.dir/butadiene_1575.chk
%nproc=8
%mem=16000MB
#p B2PLYPD3/Def2QZVP 

butadiene

0 1
C  -3.844444   0.229686   0.055116
C  -2.715259  -0.512243   0.015391
C  -1.377465   0.066484  -0.026642
C  -0.258208  -0.647001   0.061254
H  -4.859651  -0.208707   0.009996
H  -3.864896   1.333045   0.043858
H  -2.820344  -1.595262  -0.134078
H  -1.401451   1.125654  -0.119166
H  -0.297742  -1.712457   0.189640
H   0.769499  -0.214296   0.034650

