%chk=/home/boittier/MDCM/nms_sampling/butadiene_geom.xyz.dir/butadiene_2672.chk
%nproc=8
%mem=16000MB
#p B2PLYPD3/Def2QZVP 

butadiene

0 1
C  -3.860321   0.270603  -0.012153
C  -2.743606  -0.570730   0.046237
C  -1.367204   0.031304   0.092604
C  -0.226573  -0.612160  -0.037959
H  -4.899441  -0.153008  -0.028623
H  -3.820538   1.377909  -0.161861
H  -2.808082  -1.672414   0.325184
H  -1.327842   1.188442   0.123694
H  -0.210723  -1.714865   0.097729
H   0.639367  -0.121627  -0.024138
