%chk=/home/boittier/MDCM/nms_sampling/butadiene_geom.xyz.dir/butadiene_2333.chk
%nproc=8
%mem=16000MB
#p B2PLYPD3/Def2QZVP 

butadiene

0 1
C  -3.787833   0.239225  -0.045479
C  -2.699587  -0.526246   0.142485
C  -1.401585   0.058060   0.071597
C  -0.310612  -0.640664  -0.040125
H  -4.911375  -0.160843  -0.137368
H  -3.727439   1.329449  -0.102214
H  -2.877454  -1.663249  -0.005356
H  -1.338961   1.109955   0.033206
H  -0.206261  -1.708024   0.005748
H   0.633721  -0.116488  -0.003780

