%chk=/home/boittier/MDCM/nms_sampling/butadiene_geom.xyz.dir/butadiene_1388.chk
%nproc=8
%mem=16000MB
#p B2PLYPD3/Def2QZVP 

butadiene

0 1
C  -3.848159   0.234809   0.011041
C  -2.735295  -0.513898   0.041256
C  -1.374812   0.045680   0.014003
C  -0.246752  -0.636031   0.035633
H  -4.881905  -0.174556  -0.017915
H  -3.718908   1.292110   0.007375
H  -2.822206  -1.596197   0.171145
H  -1.344524   1.083627   0.026343
H  -0.273972  -1.713767  -0.024358
H   0.681920  -0.095415  -0.028743

