%chk=/home/boittier/MDCM/nms_sampling/butadiene_geom.xyz.dir/butadiene_1942.chk
%nproc=8
%mem=16000MB
#p B2PLYPD3/Def2QZVP 

butadiene

0 1
C  -3.813365   0.236427  -0.063683
C  -2.710589  -0.542480   0.124291
C  -1.395069   0.072894   0.085488
C  -0.264255  -0.643367  -0.040341
H  -4.836018  -0.173982  -0.175631
H  -3.792673   1.314587   0.102627
H  -2.956619  -1.574406   0.230514
H  -1.375582   1.152536   0.014016
H  -0.402445  -1.674488  -0.012785
H   0.744020  -0.167219  -0.070273

