%chk=/home/boittier/MDCM/nms_sampling/butadiene_geom.xyz.dir/butadiene_1106.chk
%nproc=8
%mem=16000MB
#p B2PLYPD3/Def2QZVP 

butadiene

0 1
C  -3.831648   0.240004  -0.010062
C  -2.723409  -0.524958   0.060825
C  -1.400148   0.048658   0.040077
C  -0.262313  -0.624246   0.019153
H  -4.817950  -0.202851   0.105792
H  -3.658664   1.353412  -0.138233
H  -2.777814  -1.627468   0.148076
H  -1.338172   1.107135   0.065676
H  -0.317649  -1.739930  -0.117644
H   0.721885  -0.191073  -0.010893

