%chk=/home/boittier/MDCM/nms_sampling/methanol_geom.xyz.dir/methanol_2983.chk
%nproc=8
%mem=16000MB
#p B2PLYPD3/Def2QZVP 

methanol

0 1
C  -5.155121  -1.240067   0.933122
O  -3.783673  -1.127279   0.872961
H  -5.602230  -2.235309   0.482179
H  -5.684447  -0.498158   0.430239
H  -5.489921  -1.230392   1.776693
H  -3.388875  -1.200991  -0.299280
