%chk=/home/boittier/MDCM/nms_sampling/methanol_geom.xyz.dir/methanol_358.chk
%nproc=8
%mem=16000MB
#p B2PLYPD3/Def2QZVP 

methanol

0 1
C  -5.172727  -1.248263   0.906822
O  -3.773591  -1.123816   0.864879
H  -5.493086  -2.232693   0.565204
H  -5.676457  -0.522503   0.366962
H  -5.468661  -1.159512   1.981533
H  -3.484279  -1.209024  -0.087293
