%chk=/home/boittier/MDCM/nms_sampling/methanol_geom.xyz.dir/methanol_1607.chk
%nproc=8
%mem=16000MB
#p B2PLYPD3/Def2QZVP 

methanol

0 1
C  -5.182299  -1.265389   0.899714
O  -3.770410  -1.118413   0.862196
H  -5.491557  -2.207693   0.551062
H  -5.707391  -0.488186   0.390595
H  -5.362375  -1.125575   2.032241
H  -3.498482  -1.186846  -0.020726
