%chk=/home/boittier/MDCM/nms_sampling/methanol_geom.xyz.dir/methanol_463.chk
%nproc=8
%mem=16000MB
#p B2PLYPD3/Def2QZVP 

methanol

0 1
C  -5.183854  -1.256481   0.911586
O  -3.761109  -1.123444   0.865689
H  -5.539406  -2.186927   0.570365
H  -5.710677  -0.494374   0.336839
H  -5.472689  -1.176801   1.963202
H  -3.462418  -1.181265  -0.113976
