%chk=/home/boittier/MDCM/nms_sampling/methanol_geom.xyz.dir/methanol_2509.chk
%nproc=8
%mem=16000MB
#p B2PLYPD3/Def2QZVP 

methanol

0 1
C  -5.162735  -1.249710   0.903404
O  -3.784986  -1.117720   0.851470
H  -5.376545  -2.401082   0.548757
H  -5.752842  -0.440456   0.365828
H  -5.386810  -1.111458   1.984103
H  -3.550201  -1.241742   0.192335
