%chk=/home/boittier/MDCM/nms_sampling/methanol_geom.xyz.dir/methanol_1686.chk
%nproc=8
%mem=16000MB
#p B2PLYPD3/Def2QZVP 

methanol

0 1
C  -5.182832  -1.245826   0.923767
O  -3.765964  -1.125427   0.875570
H  -5.527886  -2.240766   0.582033
H  -5.591961  -0.557956   0.374858
H  -5.493822  -1.129698   1.823367
H  -3.513895  -1.198602  -0.324148

