%chk=/home/boittier/MDCM/nms_sampling/methanol_geom.xyz.dir/methanol_398.chk
%nproc=8
%mem=16000MB
#p B2PLYPD3/Def2QZVP 

methanol

0 1
C  -5.181718  -1.252607   0.917837
O  -3.768157  -1.125890   0.852783
H  -5.492024  -2.233773   0.531850
H  -5.619862  -0.453696   0.329282
H  -5.490133  -1.164644   1.999161
H  -3.496616  -1.191956   0.033942

