%chk=/home/boittier/MDCM/nms_sampling/methanol_geom.xyz.dir/methanol_1170.chk
%nproc=8
%mem=16000MB
#p B2PLYPD3/Def2QZVP 

methanol

0 1
C  -5.178363  -1.254153   0.918297
O  -3.767583  -1.123847   0.870651
H  -5.557053  -2.202069   0.581504
H  -5.685339  -0.487751   0.358218
H  -5.467097  -1.176429   1.876008
H  -3.438344  -1.192296  -0.215877

