%chk=/home/boittier/MDCM/nms_sampling/methanol_geom.xyz.dir/methanol_2458.chk
%nproc=8
%mem=16000MB
#p B2PLYPD3/Def2QZVP 

methanol

0 1
C  -5.191815  -1.251098   0.921936
O  -3.756377  -1.129955   0.832137
H  -5.657359  -2.345368   0.478565
H  -5.684084  -0.436076   0.350350
H  -5.469469  -1.107058   2.086451
H  -3.361302  -1.110447   0.269065

