%chk=/home/boittier/MDCM/nms_sampling/methanol_geom.xyz.dir/methanol_1801.chk
%nproc=8
%mem=16000MB
#p B2PLYPD3/Def2QZVP 

methanol

0 1
C  -5.171298  -1.263902   0.921329
O  -3.776977  -1.120162   0.875196
H  -5.549638  -2.095113   0.578306
H  -5.573598  -0.519695   0.343973
H  -5.443879  -1.161619   1.895440
H  -3.511076  -1.225881  -0.331935

