%chk=/home/boittier/MDCM/nms_sampling/methanol_geom.xyz.dir/methanol_3361.chk
%nproc=8
%mem=16000MB
#p B2PLYPD3/Def2QZVP 

methanol

0 1
C  -5.162136  -1.278192   0.922872
O  -3.770930  -1.118518   0.844612
H  -5.506377  -2.210304   0.510355
H  -5.834854  -0.272524   0.262341
H  -5.426173  -1.221689   1.971614
H  -3.501659  -1.165802   0.225795
