%chk=/home/boittier/MDCM/nms_sampling/methanol_geom.xyz.dir/methanol_2161.chk
%nproc=8
%mem=16000MB
#p B2PLYPD3/Def2QZVP 

methanol

0 1
C  -5.164683  -1.258745   0.922963
O  -3.776200  -1.119389   0.841901
H  -5.501989  -2.282321   0.540589
H  -5.661174  -0.339626   0.302254
H  -5.471949  -1.212403   1.983690
H  -3.531940  -1.240714   0.189194
