%chk=/home/boittier/MDCM/nms_sampling/methanol_geom.xyz.dir/methanol_116.chk
%nproc=8
%mem=16000MB
#p B2PLYPD3/Def2QZVP 

methanol

0 1
C  -5.167948  -1.247179   0.916585
O  -3.773221  -1.124500   0.865597
H  -5.551121  -2.231618   0.556888
H  -5.672713  -0.511724   0.364561
H  -5.487065  -1.181816   1.924608
H  -3.471349  -1.202219  -0.144842
