%chk=/home/boittier/MDCM/nms_sampling/methanol_geom.xyz.dir/methanol_1955.chk
%nproc=8
%mem=16000MB
#p B2PLYPD3/Def2QZVP 

methanol

0 1
C  -5.183882  -1.251546   0.904144
O  -3.758934  -1.126059   0.882100
H  -5.559493  -2.148319   0.549269
H  -5.736893  -0.601816   0.417476
H  -5.491220  -1.146196   1.932290
H  -3.435177  -1.158461  -0.324828

