%chk=/home/boittier/MDCM/nms_sampling/methanol_geom.xyz.dir/methanol_59.chk
%nproc=8
%mem=16000MB
#p B2PLYPD3/Def2QZVP 

methanol

0 1
C  -5.175117  -1.248943   0.918566
O  -3.771784  -1.125027   0.852541
H  -5.514677  -2.267000   0.528938
H  -5.642561  -0.459806   0.343158
H  -5.468359  -1.179586   1.982931
H  -3.494790  -1.191586   0.035933
