%chk=/home/boittier/MDCM/nms_sampling/methanol_geom.xyz.dir/methanol_1309.chk
%nproc=8
%mem=16000MB
#p B2PLYPD3/Def2QZVP 

methanol

0 1
C  -5.167371  -1.254641   0.911497
O  -3.773650  -1.122621   0.867006
H  -5.537865  -2.159109   0.594344
H  -5.634268  -0.483295   0.350127
H  -5.495086  -1.210471   1.957452
H  -3.508869  -1.220258  -0.165014
