%chk=/home/boittier/MDCM/nms_sampling/methanol_geom.xyz.dir/methanol_3242.chk
%nproc=8
%mem=16000MB
#p B2PLYPD3/Def2QZVP 

methanol

0 1
C  -5.178073  -1.251255   0.922756
O  -3.766242  -1.130021   0.826555
H  -5.577983  -2.388194   0.548030
H  -5.760098  -0.290944   0.274426
H  -5.470454  -1.195559   2.034726
H  -3.359874  -1.124258   0.414074
