%chk=/home/boittier/MDCM/nms_sampling/methanol_geom.xyz.dir/methanol_3129.chk
%nproc=8
%mem=16000MB
#p B2PLYPD3/Def2QZVP 

methanol

0 1
C  -5.171459  -1.281292   0.930516
O  -3.773883  -1.119040   0.827952
H  -5.564908  -2.191732   0.488273
H  -5.621509  -0.308395   0.234569
H  -5.404907  -1.148695   2.102815
H  -3.525265  -1.174289   0.322249

