%chk=/home/boittier/MDCM/nms_sampling/methanol_geom.xyz.dir/methanol_3460.chk
%nproc=8
%mem=16000MB
#p B2PLYPD3/Def2QZVP 

methanol

0 1
C  -5.182668  -1.250294   0.920722
O  -3.757903  -1.118868   0.827370
H  -5.486116  -2.461579   0.496999
H  -5.668254  -0.381118   0.331751
H  -5.498277  -1.106184   2.045680
H  -3.608246  -1.228359   0.406929
