%chk=/home/boittier/MDCM/nms_sampling/methanol_geom.xyz.dir/methanol_1156.chk
%nproc=8
%mem=16000MB
#p B2PLYPD3/Def2QZVP 

methanol

0 1
C  -5.170411  -1.259251   0.917214
O  -3.771787  -1.121705   0.849833
H  -5.495841  -2.272902   0.528894
H  -5.684441  -0.397647   0.342870
H  -5.467565  -1.160560   1.977591
H  -3.524382  -1.201589   0.103421

