%chk=/home/boittier/MDCM/nms_sampling/methanol_geom.xyz.dir/methanol_2333.chk
%nproc=8
%mem=16000MB
#p B2PLYPD3/Def2QZVP 

methanol

0 1
C  -5.164656  -1.258016   0.908826
O  -3.771386  -1.122370   0.879436
H  -5.507953  -2.130717   0.603856
H  -5.684357  -0.480389   0.383387
H  -5.501965  -1.225513   1.877358
H  -3.545761  -1.203391  -0.297497

