%chk=/home/boittier/MDCM/nms_sampling/methanol_geom.xyz.dir/methanol_1047.chk
%nproc=8
%mem=16000MB
#p B2PLYPD3/Def2QZVP 

methanol

0 1
C  -5.186588  -1.253172   0.909026
O  -3.763391  -1.123384   0.869798
H  -5.511625  -2.209560   0.569472
H  -5.680793  -0.529668   0.372888
H  -5.467084  -1.137922   1.944826
H  -3.462859  -1.198063  -0.166774
