%chk=/home/boittier/MDCM/nms_sampling/methanol_geom.xyz.dir/methanol_1753.chk
%nproc=8
%mem=16000MB
#p B2PLYPD3/Def2QZVP 

methanol

0 1
C  -5.188852  -1.261915   0.901511
O  -3.754720  -1.116396   0.851315
H  -5.535652  -2.241687   0.549448
H  -5.746980  -0.431292   0.366336
H  -5.444355  -1.191019   2.069519
H  -3.503408  -1.221131   0.125442
