%chk=/home/boittier/MDCM/nms_sampling/methanol_geom.xyz.dir/methanol_2029.chk
%nproc=8
%mem=16000MB
#p B2PLYPD3/Def2QZVP 

methanol

0 1
C  -5.165032  -1.250008   0.915485
O  -3.776347  -1.127445   0.872986
H  -5.531980  -2.155394   0.566366
H  -5.629415  -0.511799   0.376918
H  -5.540215  -1.177992   1.905568
H  -3.459786  -1.206863  -0.256344

