%chk=/home/boittier/MDCM/nms_sampling/methanol_geom.xyz.dir/methanol_3435.chk
%nproc=8
%mem=16000MB
#p B2PLYPD3/Def2QZVP 

methanol

0 1
C  -5.183106  -1.257595   0.904892
O  -3.777189  -1.126460   0.836860
H  -5.480491  -2.257311   0.458521
H  -5.728094  -0.437613   0.327851
H  -5.374677  -1.125339   2.179621
H  -3.359074  -1.152501   0.335490

