%chk=/home/boittier/MDCM/nms_sampling/methanol_geom.xyz.dir/methanol_2359.chk
%nproc=8
%mem=16000MB
#p B2PLYPD3/Def2QZVP 

methanol

0 1
C  -5.163970  -1.263758   0.915760
O  -3.772013  -1.120761   0.853528
H  -5.493675  -2.238409   0.558861
H  -5.721287  -0.403638   0.301324
H  -5.489474  -1.151420   1.975904
H  -3.536814  -1.204812   0.071934

