%chk=/home/boittier/MDCM/nms_sampling/methanol_geom.xyz.dir/methanol_1461.chk
%nproc=8
%mem=16000MB
#p B2PLYPD3/Def2QZVP 

methanol

0 1
C  -5.186295  -1.257215   0.927946
O  -3.759061  -1.123065   0.872420
H  -5.591103  -2.179544   0.507994
H  -5.691781  -0.500429   0.383933
H  -5.493449  -1.158369   1.837287
H  -3.414626  -1.198353  -0.273068

