%chk=/home/boittier/MDCM/nms_sampling/methanol_geom.xyz.dir/methanol_2543.chk
%nproc=8
%mem=16000MB
#p B2PLYPD3/Def2QZVP 

methanol

0 1
C  -5.168460  -1.262593   0.915924
O  -3.768268  -1.115557   0.827503
H  -5.518021  -2.388429   0.479482
H  -5.835039  -0.368083   0.270845
H  -5.362825  -1.153927   2.105887
H  -3.540518  -1.176012   0.473965

