%chk=/home/boittier/MDCM/nms_sampling/methanol_geom.xyz.dir/methanol_147.chk
%nproc=8
%mem=16000MB
#p B2PLYPD3/Def2QZVP 

methanol

0 1
C  -5.181675  -1.253261   0.915871
O  -3.764668  -1.122801   0.848467
H  -5.521600  -2.290537   0.526445
H  -5.673988  -0.451750   0.339419
H  -5.467897  -1.145331   2.014070
H  -3.495257  -1.195751   0.109205

