%chk=/home/boittier/MDCM/nms_sampling/methanol_geom.xyz.dir/methanol_1761.chk
%nproc=8
%mem=16000MB
#p B2PLYPD3/Def2QZVP 

methanol

0 1
C  -5.164663  -1.254157   0.911916
O  -3.774332  -1.119751   0.878229
H  -5.555294  -2.156390   0.553980
H  -5.692296  -0.582205   0.381749
H  -5.425297  -1.181133   1.915543
H  -3.530179  -1.199135  -0.304842

