%chk=/home/boittier/MDCM/nms_sampling/methanol_geom.xyz.dir/methanol_717.chk
%nproc=8
%mem=16000MB
#p B2PLYPD3/Def2QZVP 

methanol

0 1
C  -5.173041  -1.254961   0.916255
O  -3.771674  -1.124160   0.849213
H  -5.512362  -2.252688   0.535015
H  -5.657023  -0.421226   0.333289
H  -5.491824  -1.165922   2.009540
H  -3.482480  -1.204683   0.094596
