%chk=/home/boittier/MDCM/nms_sampling/methanol_geom.xyz.dir/methanol_2647.chk
%nproc=8
%mem=16000MB
#p B2PLYPD3/Def2QZVP 

methanol

0 1
C  -5.204926  -1.275094   0.923949
O  -3.749673  -1.111811   0.837491
H  -5.439323  -2.299388   0.493135
H  -5.704116  -0.313148   0.287303
H  -5.440678  -1.120207   1.999487
H  -3.539531  -1.271272   0.294999

