%chk=/home/boittier/MDCM/nms_sampling/methanol_geom.xyz.dir/methanol_2988.chk
%nproc=8
%mem=16000MB
#p B2PLYPD3/Def2QZVP 

methanol

0 1
C  -5.153774  -1.243763   0.909246
O  -3.788337  -1.132753   0.836208
H  -5.316755  -2.340249   0.471913
H  -5.738882  -0.297610   0.334040
H  -5.600436  -1.185703   2.050396
H  -3.443740  -1.218346   0.412987
