%chk=/home/boittier/MDCM/nms_sampling/methanol_geom.xyz.dir/methanol_249.chk
%nproc=8
%mem=16000MB
#p B2PLYPD3/Def2QZVP 

methanol

0 1
C  -5.175037  -1.258420   0.911104
O  -3.768388  -1.119841   0.867131
H  -5.547053  -2.191041   0.564582
H  -5.713482  -0.505856   0.352998
H  -5.437862  -1.167468   1.956395
H  -3.476832  -1.205974  -0.135196
