%chk=/home/boittier/MDCM/nms_sampling/methanol_geom.xyz.dir/methanol_679.chk
%nproc=8
%mem=16000MB
#p B2PLYPD3/Def2QZVP 

methanol

0 1
C  -5.178947  -1.254913   0.916458
O  -3.764332  -1.120827   0.868136
H  -5.517889  -2.174272   0.563203
H  -5.657097  -0.498807   0.340068
H  -5.497299  -1.194529   1.928573
H  -3.519635  -1.229854  -0.172415

