%chk=/home/boittier/MDCM/nms_sampling/methanol_geom.xyz.dir/methanol_1111.chk
%nproc=8
%mem=16000MB
#p B2PLYPD3/Def2QZVP 

methanol

0 1
C  -5.174735  -1.255116   0.906459
O  -3.773194  -1.119619   0.872045
H  -5.503180  -2.198398   0.567703
H  -5.674043  -0.528546   0.396862
H  -5.418257  -1.163828   1.941681
H  -3.509652  -1.217706  -0.191968

