%chk=/home/boittier/MDCM/nms_sampling/methanol_geom.xyz.dir/methanol_1112.chk
%nproc=8
%mem=16000MB
#p B2PLYPD3/Def2QZVP 

methanol

0 1
C  -5.190890  -1.251882   0.908382
O  -3.762404  -1.124739   0.852777
H  -5.478879  -2.265733   0.528864
H  -5.708207  -0.466331   0.343724
H  -5.442732  -1.160982   2.034191
H  -3.456831  -1.175325   0.098469

