%chk=/home/boittier/MDCM/nms_sampling/methanol_geom.xyz.dir/methanol_2291.chk
%nproc=8
%mem=16000MB
#p B2PLYPD3/Def2QZVP 

methanol

0 1
C  -5.161482  -1.256205   0.919914
O  -3.777360  -1.122561   0.842546
H  -5.515037  -2.301783   0.547674
H  -5.684185  -0.374528   0.301582
H  -5.502199  -1.155624   2.000264
H  -3.487242  -1.223689   0.190914

