%chk=/home/boittier/MDCM/nms_sampling/methanol_geom.xyz.dir/methanol_542.chk
%nproc=8
%mem=16000MB
#p B2PLYPD3/Def2QZVP 

methanol

0 1
C  -5.182561  -1.254138   0.918336
O  -3.763658  -1.121019   0.856728
H  -5.500097  -2.284652   0.535946
H  -5.679407  -0.467880   0.345587
H  -5.462081  -1.140369   1.944132
H  -3.523987  -1.207400   0.000715

