%chk=/home/boittier/MDCM/nms_sampling/methanol_geom.xyz.dir/methanol_1425.chk
%nproc=8
%mem=16000MB
#p B2PLYPD3/Def2QZVP 

methanol

0 1
C  -5.184905  -1.271219   0.914403
O  -3.755929  -1.119369   0.841091
H  -5.585582  -2.234035   0.562236
H  -5.703698  -0.376529   0.290293
H  -5.473989  -1.138182   2.073371
H  -3.488206  -1.187420   0.200047

