%chk=/home/boittier/MDCM/nms_sampling/methanol_geom.xyz.dir/methanol_2384.chk
%nproc=8
%mem=16000MB
#p B2PLYPD3/Def2QZVP 

methanol

0 1
C  -5.183506  -1.258517   0.926388
O  -3.764233  -1.120356   0.852110
H  -5.483237  -2.250427   0.559798
H  -5.651451  -0.420920   0.260085
H  -5.463526  -1.173798   1.942714
H  -3.541997  -1.217318   0.043267

