%chk=/home/boittier/MDCM/nms_sampling/methanol_geom.xyz.dir/methanol_874.chk
%nproc=8
%mem=16000MB
#p B2PLYPD3/Def2QZVP 

methanol

0 1
C  -5.183068  -1.255574   0.911473
O  -3.760295  -1.121283   0.872518
H  -5.548700  -2.176981   0.540922
H  -5.704498  -0.536112   0.389602
H  -5.479278  -1.164197   1.931483
H  -3.478083  -1.204620  -0.215847

