%chk=/home/boittier/MDCM/nms_sampling/methanol_geom.xyz.dir/methanol_226.chk
%nproc=8
%mem=16000MB
#p B2PLYPD3/Def2QZVP 

methanol

0 1
C  -5.185258  -1.254500   0.917060
O  -3.759195  -1.121951   0.855609
H  -5.549603  -2.249770   0.517965
H  -5.717467  -0.466666   0.348105
H  -5.461265  -1.179572   1.977849
H  -3.473641  -1.187698   0.013786
