%chk=/home/boittier/MDCM/nms_sampling/methanol_geom.xyz.dir/methanol_2539.chk
%nproc=8
%mem=16000MB
#p B2PLYPD3/Def2QZVP 

methanol

0 1
C  -5.181544  -1.261203   0.903322
O  -3.761943  -1.121132   0.897738
H  -5.371016  -2.099205   0.671313
H  -5.690118  -0.565091   0.326630
H  -5.516900  -1.139973   1.811689
H  -3.619162  -1.217816  -0.478757
