%chk=/home/boittier/MDCM/nms_sampling/methanol_geom.xyz.dir/methanol_3432.chk
%nproc=8
%mem=16000MB
#p B2PLYPD3/Def2QZVP 

methanol

0 1
C  -5.190537  -1.243901   0.900605
O  -3.758694  -1.116890   0.900404
H  -5.468155  -2.128603   0.586924
H  -5.640313  -0.703641   0.451845
H  -5.429813  -1.202659   1.853505
H  -3.618958  -1.242602  -0.575089

