%chk=/home/boittier/MDCM/nms_sampling/methanol_geom.xyz.dir/methanol_2970.chk
%nproc=8
%mem=16000MB
#p B2PLYPD3/Def2QZVP 

methanol

0 1
C  -5.179363  -1.235142   0.904763
O  -3.783253  -1.131000   0.895390
H  -5.441108  -2.132846   0.549292
H  -5.620462  -0.690937   0.439519
H  -5.398076  -1.175293   1.870890
H  -3.435696  -1.157184  -0.510792
