%chk=/home/boittier/MDCM/nms_sampling/methanol_geom.xyz.dir/methanol_3374.chk
%nproc=8
%mem=16000MB
#p B2PLYPD3/Def2QZVP 

methanol

0 1
C  -5.192170  -1.248735   0.895154
O  -3.762209  -1.126971   0.838994
H  -5.343015  -2.312542   0.580438
H  -5.688408  -0.383042   0.290705
H  -5.562244  -1.142332   2.145860
H  -3.479540  -1.235884   0.369654
