%chk=/home/boittier/MDCM/nms_sampling/methanol_geom.xyz.dir/methanol_3250.chk
%nproc=8
%mem=16000MB
#p B2PLYPD3/Def2QZVP 

methanol

0 1
C  -5.178045  -1.261359   0.918807
O  -3.753270  -1.110357   0.870391
H  -5.688989  -2.241999   0.593184
H  -5.752658  -0.511427   0.384799
H  -5.422941  -1.188699   1.863635
H  -3.520485  -1.242463  -0.241558

