%chk=/home/boittier/MDCM/nms_sampling/methanol_geom.xyz.dir/methanol_228.chk
%nproc=8
%mem=16000MB
#p B2PLYPD3/Def2QZVP 

methanol

0 1
C  -5.181325  -1.259809   0.910333
O  -3.764299  -1.119751   0.860881
H  -5.482269  -2.201997   0.562066
H  -5.685133  -0.466414   0.329482
H  -5.479170  -1.160178   1.988586
H  -3.518761  -1.228647  -0.030356
