%chk=/home/boittier/MDCM/nms_sampling/methanol_geom.xyz.dir/methanol_3483.chk
%nproc=8
%mem=16000MB
#p B2PLYPD3/Def2QZVP 

methanol

0 1
C  -5.198297  -1.278891   0.891093
O  -3.760879  -1.114648   0.889414
H  -5.508672  -2.098015   0.591696
H  -5.730857  -0.570963   0.460913
H  -5.279627  -1.086631   1.936829
H  -3.504993  -1.154453  -0.379662

