%chk=/home/boittier/MDCM/nms_sampling/methanol_geom.xyz.dir/methanol_1280.chk
%nproc=8
%mem=16000MB
#p B2PLYPD3/Def2QZVP 

methanol

0 1
C  -5.181168  -1.266956   0.907477
O  -3.768830  -1.120563   0.883427
H  -5.484347  -2.148333   0.635809
H  -5.718906  -0.492463   0.359720
H  -5.393119  -1.148146   1.847708
H  -3.496216  -1.172009  -0.324717
