%chk=/home/boittier/MDCM/nms_sampling/methanol_geom.xyz.dir/methanol_1430.chk
%nproc=8
%mem=16000MB
#p B2PLYPD3/Def2QZVP 

methanol

0 1
C  -5.194402  -1.252041   0.921278
O  -3.761701  -1.123237   0.848096
H  -5.501866  -2.298094   0.562209
H  -5.636091  -0.418738   0.305857
H  -5.459134  -1.161986   1.970399
H  -3.460418  -1.211452   0.095251

