%chk=/home/boittier/MDCM/nms_sampling/methanol_geom.xyz.dir/methanol_516.chk
%nproc=8
%mem=16000MB
#p B2PLYPD3/Def2QZVP 

methanol

0 1
C  -5.176511  -1.256764   0.918132
O  -3.764035  -1.121341   0.853161
H  -5.510022  -2.257120   0.551344
H  -5.696242  -0.420072   0.315921
H  -5.512405  -1.168788   1.965543
H  -3.506280  -1.223384   0.053926
