%chk=/home/boittier/MDCM/nms_sampling/methanol_geom.xyz.dir/methanol_912.chk
%nproc=8
%mem=16000MB
#p B2PLYPD3/Def2QZVP 

methanol

0 1
C  -5.180807  -1.256567   0.920729
O  -3.761790  -1.120309   0.852272
H  -5.555308  -2.281903   0.534531
H  -5.711662  -0.433488   0.334740
H  -5.451091  -1.173821   1.954329
H  -3.494801  -1.195937   0.047813
