%chk=/home/boittier/MDCM/nms_sampling/methanol_geom.xyz.dir/methanol_601.chk
%nproc=8
%mem=16000MB
#p B2PLYPD3/Def2QZVP 

methanol

0 1
C  -5.180348  -1.256410   0.918210
O  -3.769228  -1.120571   0.849065
H  -5.513708  -2.285840   0.524388
H  -5.692253  -0.425002   0.333049
H  -5.416639  -1.165995   1.987700
H  -3.478788  -1.203132   0.107540
