%chk=/home/boittier/MDCM/nms_sampling/methanol_geom.xyz.dir/methanol_2445.chk
%nproc=8
%mem=16000MB
#p B2PLYPD3/Def2QZVP 

methanol

0 1
C  -5.144184  -1.256936   0.911285
O  -3.783446  -1.122857   0.870452
H  -5.506667  -2.185411   0.575659
H  -5.727541  -0.404571   0.394357
H  -5.494305  -1.260819   1.875258
H  -3.555922  -1.194034  -0.157475

