%chk=/home/boittier/MDCM/nms_sampling/methanol_geom.xyz.dir/methanol_3240.chk
%nproc=8
%mem=16000MB
#p B2PLYPD3/Def2QZVP 

methanol

0 1
C  -5.202680  -1.259449   0.886852
O  -3.742492  -1.127783   0.893689
H  -5.575352  -2.072151   0.670077
H  -5.741393  -0.591577   0.434728
H  -5.543751  -1.137447   1.940410
H  -3.397925  -1.142440  -0.455087
