%chk=/home/boittier/MDCM/nms_sampling/methanol_geom.xyz.dir/methanol_970.chk
%nproc=8
%mem=16000MB
#p B2PLYPD3/Def2QZVP 

methanol

0 1
C  -5.175566  -1.255149   0.918507
O  -3.766293  -1.120515   0.855229
H  -5.524155  -2.249933   0.542488
H  -5.666616  -0.433274   0.346585
H  -5.490924  -1.187632   1.954821
H  -3.519205  -1.228143   0.005075
