%chk=/home/boittier/MDCM/nms_sampling/methanol_geom.xyz.dir/methanol_2722.chk
%nproc=8
%mem=16000MB
#p B2PLYPD3/Def2QZVP 

methanol

0 1
C  -5.170132  -1.265601   0.903270
O  -3.783592  -1.121178   0.832269
H  -5.331188  -2.354023   0.584941
H  -5.721654  -0.259966   0.274178
H  -5.445990  -1.112113   2.080375
H  -3.489365  -1.240021   0.466776

