%chk=/home/boittier/MDCM/nms_sampling/methanol_geom.xyz.dir/methanol_2187.chk
%nproc=8
%mem=16000MB
#p B2PLYPD3/Def2QZVP 

methanol

0 1
C  -5.165432  -1.248176   0.909092
O  -3.773209  -1.125292   0.842701
H  -5.507497  -2.305120   0.503036
H  -5.695840  -0.454980   0.349038
H  -5.501741  -1.153773   2.089697
H  -3.506670  -1.189881   0.219538
