%chk=/home/boittier/MDCM/nms_sampling/methanol_geom.xyz.dir/methanol_325.chk
%nproc=8
%mem=16000MB
#p B2PLYPD3/Def2QZVP 

methanol

0 1
C  -5.176471  -1.248854   0.922417
O  -3.765757  -1.123514   0.849834
H  -5.513458  -2.283568   0.524834
H  -5.682593  -0.441335   0.308422
H  -5.506657  -1.187244   1.972804
H  -3.497602  -1.212768   0.083770

