%chk=/home/boittier/MDCM/nms_sampling/methanol_geom.xyz.dir/methanol_2522.chk
%nproc=8
%mem=16000MB
#p B2PLYPD3/Def2QZVP 

methanol

0 1
C  -5.158853  -1.245259   0.931129
O  -3.782799  -1.136050   0.825700
H  -5.463668  -2.319822   0.462299
H  -5.595064  -0.310518   0.280925
H  -5.582603  -1.194718   2.053170
H  -3.482665  -1.150142   0.385704
