%chk=/home/boittier/MDCM/nms_sampling/methanol_geom.xyz.dir/methanol_1514.chk
%nproc=8
%mem=16000MB
#p B2PLYPD3/Def2QZVP 

methanol

0 1
C  -5.182945  -1.256958   0.919619
O  -3.770991  -1.120107   0.851728
H  -5.541514  -2.237058   0.519053
H  -5.641943  -0.484580   0.322292
H  -5.385065  -1.156077   2.014952
H  -3.476097  -1.201208   0.032738

