%chk=/home/boittier/MDCM/nms_sampling/methanol_geom.xyz.dir/methanol_2717.chk
%nproc=8
%mem=16000MB
#p B2PLYPD3/Def2QZVP 

methanol

0 1
C  -5.182845  -1.265224   0.918749
O  -3.779581  -1.129349   0.886411
H  -5.572517  -2.074291   0.678353
H  -5.513431  -0.558515   0.339946
H  -5.403980  -1.077643   1.836462
H  -3.411477  -1.133309  -0.519310

