%chk=/home/boittier/MDCM/nms_sampling/methanol_geom.xyz.dir/methanol_1020.chk
%nproc=8
%mem=16000MB
#p B2PLYPD3/Def2QZVP 

methanol

0 1
C  -5.172772  -1.255740   0.908181
O  -3.766909  -1.119672   0.851706
H  -5.489708  -2.259472   0.526360
H  -5.719717  -0.462966   0.337918
H  -5.487097  -1.154584   2.046201
H  -3.529765  -1.227428   0.114085

