%chk=/home/boittier/MDCM/nms_sampling/methanol_geom.xyz.dir/methanol_524.chk
%nproc=8
%mem=16000MB
#p B2PLYPD3/Def2QZVP 

methanol

0 1
C  -5.192526  -1.258222   0.918950
O  -3.760008  -1.124075   0.855042
H  -5.512528  -2.232967   0.550604
H  -5.661454  -0.455443   0.307568
H  -5.462876  -1.138713   1.976917
H  -3.466142  -1.181026   0.009390
