%chk=/home/boittier/MDCM/nms_sampling/methanol_geom.xyz.dir/methanol_706.chk
%nproc=8
%mem=16000MB
#p B2PLYPD3/Def2QZVP 

methanol

0 1
C  -5.181149  -1.254524   0.914861
O  -3.769917  -1.124721   0.865960
H  -5.454553  -2.211755   0.553054
H  -5.677174  -0.469864   0.342302
H  -5.473725  -1.157489   1.921662
H  -3.472736  -1.200446  -0.101895

