%chk=/home/boittier/MDCM/nms_sampling/methanol_geom.xyz.dir/methanol_111.chk
%nproc=8
%mem=16000MB
#p B2PLYPD3/Def2QZVP 

methanol

0 1
C  -5.182056  -1.261851   0.908942
O  -3.760808  -1.120762   0.852235
H  -5.518032  -2.223156   0.560060
H  -5.739165  -0.425602   0.308843
H  -5.461891  -1.180012   2.037197
H  -3.490233  -1.191068   0.101232

