%chk=/home/boittier/MDCM/nms_sampling/methanol_geom.xyz.dir/methanol_2634.chk
%nproc=8
%mem=16000MB
#p B2PLYPD3/Def2QZVP 

methanol

0 1
C  -5.196100  -1.251854   0.909119
O  -3.745110  -1.129338   0.897918
H  -5.488869  -2.089801   0.629078
H  -5.804328  -0.549700   0.344161
H  -5.572593  -1.218810   1.781660
H  -3.424308  -1.150240  -0.495013
