%chk=/home/boittier/MDCM/nms_sampling/methanol_geom.xyz.dir/methanol_3177.chk
%nproc=8
%mem=16000MB
#p B2PLYPD3/Def2QZVP 

methanol

0 1
C  -5.169392  -1.277048   0.924258
O  -3.770459  -1.117549   0.878974
H  -5.601620  -2.110568   0.633002
H  -5.719248  -0.368679   0.353288
H  -5.416017  -1.224422   1.760681
H  -3.457339  -1.193684  -0.348807
