%chk=/home/boittier/MDCM/nms_sampling/methanol_geom.xyz.dir/methanol_1946.chk
%nproc=8
%mem=16000MB
#p B2PLYPD3/Def2QZVP 

methanol

0 1
C  -5.175888  -1.244390   0.911587
O  -3.763353  -1.123417   0.848620
H  -5.482985  -2.303397   0.467804
H  -5.759101  -0.459875   0.362327
H  -5.513744  -1.201413   2.034850
H  -3.491700  -1.212179   0.170312

