%chk=/home/boittier/MDCM/nms_sampling/methanol_geom.xyz.dir/methanol_2296.chk
%nproc=8
%mem=16000MB
#p B2PLYPD3/Def2QZVP 

methanol

0 1
C  -5.184726  -1.256892   0.928273
O  -3.768313  -1.126701   0.843847
H  -5.519746  -2.312892   0.497714
H  -5.700701  -0.406885   0.296050
H  -5.427092  -1.115178   1.965426
H  -3.415961  -1.145605   0.160300
