%chk=/home/boittier/MDCM/nms_sampling/methanol_geom.xyz.dir/methanol_3066.chk
%nproc=8
%mem=16000MB
#p B2PLYPD3/Def2QZVP 

methanol

0 1
C  -5.170739  -1.251448   0.930078
O  -3.767006  -1.113472   0.869175
H  -5.597881  -2.182335   0.503147
H  -5.560449  -0.578659   0.379222
H  -5.441977  -1.219911   1.892120
H  -3.651312  -1.265041  -0.293271
