%chk=/home/boittier/MDCM/nms_sampling/methanol_geom.xyz.dir/methanol_2876.chk
%nproc=8
%mem=16000MB
#p B2PLYPD3/Def2QZVP 

methanol

0 1
C  -5.199319  -1.266473   0.920706
O  -3.742387  -1.112248   0.825484
H  -5.655503  -2.319681   0.456669
H  -5.740186  -0.389733   0.316822
H  -5.381356  -1.195456   2.142021
H  -3.529034  -1.191173   0.389769

