%chk=/home/boittier/MDCM/nms_sampling/methanol_geom.xyz.dir/methanol_121.chk
%nproc=8
%mem=16000MB
#p B2PLYPD3/Def2QZVP 

methanol

0 1
C  -5.177995  -1.251657   0.910151
O  -3.771920  -1.124056   0.851886
H  -5.478278  -2.264202   0.517416
H  -5.691801  -0.459608   0.350727
H  -5.455484  -1.156432   2.030751
H  -3.460662  -1.200739   0.100258
