%chk=/home/boittier/MDCM/nms_sampling/methanol_geom.xyz.dir/methanol_937.chk
%nproc=8
%mem=16000MB
#p B2PLYPD3/Def2QZVP 

methanol

0 1
C  -5.179720  -1.257831   0.918201
O  -3.767166  -1.122572   0.865959
H  -5.543250  -2.209916   0.574576
H  -5.697039  -0.460848   0.342043
H  -5.453944  -1.170273   1.899740
H  -3.443759  -1.194955  -0.139015
