%chk=/home/boittier/MDCM/nms_sampling/methanol_geom.xyz.dir/methanol_392.chk
%nproc=8
%mem=16000MB
#p B2PLYPD3/Def2QZVP 

methanol

0 1
C  -5.181205  -1.263129   0.907799
O  -3.767782  -1.120713   0.866988
H  -5.508757  -2.165758   0.557261
H  -5.706836  -0.482244   0.360161
H  -5.434101  -1.153734   1.974424
H  -3.460895  -1.201234  -0.112403

