%chk=/home/boittier/MDCM/nms_sampling/methanol_geom.xyz.dir/methanol_1358.chk
%nproc=8
%mem=16000MB
#p B2PLYPD3/Def2QZVP 

methanol

0 1
C  -5.176307  -1.247297   0.923158
O  -3.766544  -1.124977   0.846877
H  -5.587115  -2.303213   0.505083
H  -5.726278  -0.452498   0.324470
H  -5.468444  -1.183043   1.989475
H  -3.409890  -1.180222   0.110280
