%chk=/home/boittier/MDCM/nms_sampling/methanol_geom.xyz.dir/methanol_3035.chk
%nproc=8
%mem=16000MB
#p B2PLYPD3/Def2QZVP 

methanol

0 1
C  -5.198907  -1.236869   0.932591
O  -3.764819  -1.125658   0.879824
H  -5.463743  -2.235663   0.587994
H  -5.493535  -0.512571   0.392048
H  -5.504342  -1.216652   1.723405
H  -3.496684  -1.259578  -0.416741

