%chk=/home/boittier/MDCM/nms_sampling/methanol_geom.xyz.dir/methanol_1404.chk
%nproc=8
%mem=16000MB
#p B2PLYPD3/Def2QZVP 

methanol

0 1
C  -5.184151  -1.258537   0.906162
O  -3.763189  -1.121527   0.878177
H  -5.492891  -2.142083   0.603636
H  -5.619845  -0.533908   0.388848
H  -5.484876  -1.155710   1.921075
H  -3.551626  -1.212348  -0.296247

