%chk=/home/boittier/MDCM/nms_sampling/methanol_geom.xyz.dir/methanol_1504.chk
%nproc=8
%mem=16000MB
#p B2PLYPD3/Def2QZVP 

methanol

0 1
C  -5.179444  -1.250215   0.926030
O  -3.770252  -1.122402   0.867963
H  -5.494270  -2.233159   0.502965
H  -5.642112  -0.509758   0.372145
H  -5.470221  -1.153347   1.862515
H  -3.491299  -1.226192  -0.186108
