%chk=/home/boittier/MDCM/nms_sampling/methanol_geom.xyz.dir/methanol_2761.chk
%nproc=8
%mem=16000MB
#p B2PLYPD3/Def2QZVP 

methanol

0 1
C  -5.144717  -1.241964   0.919849
O  -3.782930  -1.122855   0.828793
H  -5.517761  -2.359326   0.396325
H  -5.714069  -0.440278   0.340908
H  -5.545709  -1.167873   2.128315
H  -3.524968  -1.244581   0.394354
