%chk=/home/boittier/MDCM/nms_sampling/methanol_geom.xyz.dir/methanol_2744.chk
%nproc=8
%mem=16000MB
#p B2PLYPD3/Def2QZVP 

methanol

0 1
C  -5.166585  -1.230219   0.918106
O  -3.785418  -1.127674   0.825109
H  -5.403247  -2.498993   0.501092
H  -5.665807  -0.406160   0.293143
H  -5.417915  -1.173176   2.074138
H  -3.527038  -1.186014   0.479205

