%chk=/home/boittier/MDCM/nms_sampling/methanol_geom.xyz.dir/methanol_2745.chk
%nproc=8
%mem=16000MB
#p B2PLYPD3/Def2QZVP 

methanol

0 1
C  -5.194967  -1.243178   0.920215
O  -3.766976  -1.123274   0.889578
H  -5.593778  -2.163922   0.564375
H  -5.499753  -0.686673   0.461715
H  -5.433563  -1.106856   1.821981
H  -3.450839  -1.227313  -0.581982
