%chk=/home/boittier/MDCM/nms_sampling/methanol_geom.xyz.dir/methanol_1683.chk
%nproc=8
%mem=16000MB
#p B2PLYPD3/Def2QZVP 

methanol

0 1
C  -5.192261  -1.262778   0.899703
O  -3.756905  -1.120405   0.845042
H  -5.491209  -2.231771   0.563640
H  -5.725362  -0.379718   0.333157
H  -5.468622  -1.192173   2.110577
H  -3.466505  -1.211163   0.226778
