%chk=/home/boittier/MDCM/nms_sampling/methanol_geom.xyz.dir/methanol_243.chk
%nproc=8
%mem=16000MB
#p B2PLYPD3/Def2QZVP 

methanol

0 1
C  -5.182700  -1.256778   0.918600
O  -3.770051  -1.125252   0.870322
H  -5.529209  -2.194863   0.569625
H  -5.651990  -0.483547   0.367179
H  -5.445296  -1.147602   1.879017
H  -3.431398  -1.178946  -0.214368
