%chk=/home/boittier/MDCM/nms_sampling/methanol_geom.xyz.dir/methanol_1237.chk
%nproc=8
%mem=16000MB
#p B2PLYPD3/Def2QZVP 

methanol

0 1
C  -5.161322  -1.258213   0.924925
O  -3.772970  -1.121810   0.864571
H  -5.536567  -2.189334   0.554762
H  -5.672677  -0.449053   0.319557
H  -5.501484  -1.200985   1.887184
H  -3.545004  -1.206629  -0.141625

