%chk=/home/boittier/MDCM/nms_sampling/methanol_geom.xyz.dir/methanol_1271.chk
%nproc=8
%mem=16000MB
#p B2PLYPD3/Def2QZVP 

methanol

0 1
C  -5.166958  -1.248580   0.908252
O  -3.774431  -1.128426   0.875095
H  -5.510656  -2.148589   0.583596
H  -5.694199  -0.526363   0.356415
H  -5.513398  -1.201436   1.934416
H  -3.450163  -1.177016  -0.232881
