%chk=/home/boittier/MDCM/nms_sampling/methanol_geom.xyz.dir/methanol_1623.chk
%nproc=8
%mem=16000MB
#p B2PLYPD3/Def2QZVP 

methanol

0 1
C  -5.198191  -1.252994   0.916608
O  -3.759909  -1.125460   0.872751
H  -5.572737  -2.203804   0.557387
H  -5.614638  -0.563056   0.404700
H  -5.420434  -1.118554   1.901550
H  -3.436055  -1.157273  -0.279781

