%chk=/home/boittier/MDCM/nms_sampling/methanol_geom.xyz.dir/methanol_3128.chk
%nproc=8
%mem=16000MB
#p B2PLYPD3/Def2QZVP 

methanol

0 1
C  -5.202378  -1.277165   0.914356
O  -3.747327  -1.115684   0.872617
H  -5.466816  -2.161779   0.611652
H  -5.756136  -0.440083   0.285455
H  -5.436677  -1.118757   1.879710
H  -3.526191  -1.203007  -0.164372

