%chk=/home/boittier/MDCM/nms_sampling/methanol_geom.xyz.dir/methanol_1762.chk
%nproc=8
%mem=16000MB
#p B2PLYPD3/Def2QZVP 

methanol

0 1
C  -5.184109  -1.245925   0.907004
O  -3.764619  -1.125001   0.878248
H  -5.496775  -2.167848   0.561137
H  -5.612794  -0.578885   0.421072
H  -5.516880  -1.167792   1.927066
H  -3.505042  -1.219063  -0.303895
