%chk=/home/boittier/MDCM/nms_sampling/methanol_geom.xyz.dir/methanol_596.chk
%nproc=8
%mem=16000MB
#p B2PLYPD3/Def2QZVP 

methanol

0 1
C  -5.170931  -1.258453   0.914445
O  -3.769786  -1.122219   0.866642
H  -5.546947  -2.170805   0.571034
H  -5.648503  -0.476660   0.363568
H  -5.480983  -1.188125   1.937983
H  -3.519371  -1.199907  -0.163795

