%chk=/home/boittier/MDCM/nms_sampling/methanol_geom.xyz.dir/methanol_815.chk
%nproc=8
%mem=16000MB
#p B2PLYPD3/Def2QZVP 

methanol

0 1
C  -5.190832  -1.250479   0.909142
O  -3.762153  -1.122508   0.872095
H  -5.498757  -2.199608   0.547267
H  -5.692319  -0.547142   0.380912
H  -5.442463  -1.168768   1.940674
H  -3.460113  -1.202670  -0.188446
