%chk=/home/boittier/MDCM/nms_sampling/methanol_geom.xyz.dir/methanol_519.chk
%nproc=8
%mem=16000MB
#p B2PLYPD3/Def2QZVP 

methanol

0 1
C  -5.176185  -1.252234   0.913352
O  -3.774157  -1.125578   0.855674
H  -5.435820  -2.253949   0.547583
H  -5.679754  -0.443679   0.316980
H  -5.481784  -1.150112   1.981858
H  -3.472245  -1.204469   0.054143
