%chk=/home/boittier/MDCM/nms_sampling/methanol_geom.xyz.dir/methanol_3173.chk
%nproc=8
%mem=16000MB
#p B2PLYPD3/Def2QZVP 

methanol

0 1
C  -5.157175  -1.251525   0.914451
O  -3.785357  -1.132430   0.825097
H  -5.546594  -2.267301   0.520991
H  -5.586698  -0.318213   0.318167
H  -5.556747  -1.193022   2.159229
H  -3.413333  -1.180796   0.388873
