%chk=/home/boittier/MDCM/nms_sampling/methanol_geom.xyz.dir/methanol_2669.chk
%nproc=8
%mem=16000MB
#p B2PLYPD3/Def2QZVP 

methanol

0 1
C  -5.179339  -1.239934   0.924452
O  -3.765284  -1.127773   0.847387
H  -5.558353  -2.200869   0.475507
H  -5.614084  -0.476135   0.315857
H  -5.562333  -1.260980   2.045911
H  -3.436307  -1.225379   0.063270
