%chk=/home/boittier/MDCM/nms_sampling/methanol_geom.xyz.dir/methanol_983.chk
%nproc=8
%mem=16000MB
#p B2PLYPD3/Def2QZVP 

methanol

0 1
C  -5.174916  -1.250656   0.918398
O  -3.772721  -1.125327   0.853268
H  -5.511292  -2.247552   0.540354
H  -5.647007  -0.471935   0.314301
H  -5.467621  -1.164958   1.995371
H  -3.481635  -1.189611   0.029434

