%chk=/home/boittier/MDCM/nms_sampling/methanol_geom.xyz.dir/methanol_1002.chk
%nproc=8
%mem=16000MB
#p B2PLYPD3/Def2QZVP 

methanol

0 1
C  -5.183994  -1.262284   0.908522
O  -3.766109  -1.120849   0.852195
H  -5.498105  -2.237083   0.549881
H  -5.708995  -0.419562   0.338445
H  -5.415245  -1.166733   2.027605
H  -3.481998  -1.186663   0.098295
