%chk=/home/boittier/MDCM/nms_sampling/methanol_geom.xyz.dir/methanol_1808.chk
%nproc=8
%mem=16000MB
#p B2PLYPD3/Def2QZVP 

methanol

0 1
C  -5.181428  -1.257532   0.920186
O  -3.758623  -1.119799   0.847260
H  -5.514382  -2.282966   0.568137
H  -5.698754  -0.382687   0.287463
H  -5.510926  -1.191551   1.973320
H  -3.528549  -1.228293   0.131258

