%chk=/home/boittier/MDCM/nms_sampling/methanol_geom.xyz.dir/methanol_1455.chk
%nproc=8
%mem=16000MB
#p B2PLYPD3/Def2QZVP 

methanol

0 1
C  -5.185870  -1.249018   0.917783
O  -3.758258  -1.125831   0.848020
H  -5.600205  -2.288269   0.518347
H  -5.682829  -0.468225   0.358115
H  -5.481317  -1.169821   2.016746
H  -3.446229  -1.160615   0.080749

