%chk=/home/boittier/MDCM/nms_sampling/methanol_geom.xyz.dir/methanol_3195.chk
%nproc=8
%mem=16000MB
#p B2PLYPD3/Def2QZVP 

methanol

0 1
C  -5.146982  -1.257396   0.914867
O  -3.780102  -1.116889   0.890732
H  -5.611604  -2.035869   0.622584
H  -5.594920  -0.565872   0.396600
H  -5.511700  -1.262308   1.842813
H  -3.590685  -1.267665  -0.552941
