%chk=/home/boittier/MDCM/nms_sampling/methanol_geom.xyz.dir/methanol_2580.chk
%nproc=8
%mem=16000MB
#p B2PLYPD3/Def2QZVP 

methanol

0 1
C  -5.198967  -1.262964   0.919199
O  -3.770224  -1.127496   0.842775
H  -5.542330  -2.211573   0.504791
H  -5.595588  -0.450456   0.307203
H  -5.359150  -1.101501   2.088711
H  -3.368771  -1.132009   0.137622

