%chk=/home/boittier/MDCM/nms_sampling/methanol_geom.xyz.dir/methanol_3232.chk
%nproc=8
%mem=16000MB
#p B2PLYPD3/Def2QZVP 

methanol

0 1
C  -5.199485  -1.261469   0.934264
O  -3.750784  -1.113406   0.879561
H  -5.621920  -2.246365   0.587054
H  -5.638850  -0.546594   0.374392
H  -5.424849  -1.088815   1.730998
H  -3.494274  -1.250850  -0.422345
