%chk=/home/boittier/MDCM/nms_sampling/methanol_geom.xyz.dir/methanol_595.chk
%nproc=8
%mem=16000MB
#p B2PLYPD3/Def2QZVP 

methanol

0 1
C  -5.190620  -1.259205   0.910639
O  -3.761943  -1.120415   0.872738
H  -5.500099  -2.159280   0.583639
H  -5.663156  -0.510305   0.354170
H  -5.445965  -1.166919   1.928934
H  -3.485894  -1.215945  -0.213932

