%chk=/home/boittier/MDCM/nms_sampling/methanol_geom.xyz.dir/methanol_124.chk
%nproc=8
%mem=16000MB
#p B2PLYPD3/Def2QZVP 

methanol

0 1
C  -5.180450  -1.251171   0.908767
O  -3.763084  -1.124503   0.873132
H  -5.512751  -2.177214   0.592468
H  -5.678298  -0.517369   0.363559
H  -5.508544  -1.191359   1.927501
H  -3.494195  -1.198210  -0.214335

