%chk=/home/boittier/MDCM/nms_sampling/methanol_geom.xyz.dir/methanol_2929.chk
%nproc=8
%mem=16000MB
#p B2PLYPD3/Def2QZVP 

methanol

0 1
C  -5.195889  -1.264867   0.906374
O  -3.762879  -1.126394   0.887833
H  -5.395675  -2.122284   0.579155
H  -5.761650  -0.481630   0.376202
H  -5.437790  -1.139240   1.828804
H  -3.417979  -1.152988  -0.326224

