%chk=/home/boittier/MDCM/nms_sampling/methanol_geom.xyz.dir/methanol_587.chk
%nproc=8
%mem=16000MB
#p B2PLYPD3/Def2QZVP 

methanol

0 1
C  -5.184069  -1.246877   0.917325
O  -3.765215  -1.123422   0.850338
H  -5.498252  -2.277991   0.508869
H  -5.655364  -0.480238   0.334337
H  -5.477491  -1.173885   2.014582
H  -3.492566  -1.213932   0.081967

