%chk=/home/boittier/MDCM/nms_sampling/methanol_geom.xyz.dir/methanol_2966.chk
%nproc=8
%mem=16000MB
#p B2PLYPD3/Def2QZVP 

methanol

0 1
C  -5.188305  -1.280620   0.927595
O  -3.768104  -1.119870   0.875815
H  -5.607960  -2.048614   0.614117
H  -5.544626  -0.528551   0.288907
H  -5.367554  -1.080190   1.889664
H  -3.497859  -1.157811  -0.392246

