%chk=/home/boittier/MDCM/nms_sampling/methanol_geom.xyz.dir/methanol_1153.chk
%nproc=8
%mem=16000MB
#p B2PLYPD3/Def2QZVP 

methanol

0 1
C  -5.187670  -1.254178   0.908553
O  -3.763630  -1.123224   0.857990
H  -5.504399  -2.233985   0.525175
H  -5.712868  -0.483152   0.362843
H  -5.451096  -1.154355   2.013535
H  -3.436678  -1.194374   0.016159
