%chk=/home/boittier/MDCM/nms_sampling/methanol_geom.xyz.dir/methanol_3410.chk
%nproc=8
%mem=16000MB
#p B2PLYPD3/Def2QZVP 

methanol

0 1
C  -5.184647  -1.246010   0.921851
O  -3.765106  -1.129656   0.870748
H  -5.562288  -2.158697   0.639322
H  -5.483740  -0.558880   0.316909
H  -5.554916  -1.153507   1.913553
H  -3.512038  -1.192890  -0.315896
