%chk=/home/boittier/MDCM/nms_sampling/methanol_geom.xyz.dir/methanol_644.chk
%nproc=8
%mem=16000MB
#p B2PLYPD3/Def2QZVP 

methanol

0 1
C  -5.173583  -1.248667   0.919806
O  -3.772939  -1.123982   0.864306
H  -5.529117  -2.228149   0.541815
H  -5.637931  -0.529678   0.346770
H  -5.474097  -1.149619   1.933598
H  -3.481964  -1.209209  -0.139340
