%chk=/home/boittier/MDCM/nms_sampling/methanol_geom.xyz.dir/methanol_2802.chk
%nproc=8
%mem=16000MB
#p B2PLYPD3/Def2QZVP 

methanol

0 1
C  -5.202400  -1.263159   0.893068
O  -3.751589  -1.121490   0.841294
H  -5.433800  -2.276759   0.583603
H  -5.709425  -0.392858   0.322082
H  -5.466983  -1.129811   2.156484
H  -3.510698  -1.192985   0.311235

