%chk=/home/boittier/MDCM/nms_sampling/methanol_geom.xyz.dir/methanol_1873.chk
%nproc=8
%mem=16000MB
#p B2PLYPD3/Def2QZVP 

methanol

0 1
C  -5.172535  -1.256449   0.910405
O  -3.772185  -1.126722   0.850878
H  -5.493653  -2.217342   0.545860
H  -5.718587  -0.430005   0.297697
H  -5.511383  -1.151412   2.048878
H  -3.415906  -1.191139   0.118667

