%chk=/home/boittier/MDCM/nms_sampling/methanol_geom.xyz.dir/methanol_643.chk
%nproc=8
%mem=16000MB
#p B2PLYPD3/Def2QZVP 

methanol

0 1
C  -5.182150  -1.257425   0.911630
O  -3.767576  -1.120558   0.872913
H  -5.520813  -2.176938   0.553671
H  -5.696192  -0.523037   0.376701
H  -5.417147  -1.168735   1.921005
H  -3.471801  -1.200191  -0.213023

