%chk=/home/boittier/MDCM/nms_sampling/methanol_geom.xyz.dir/methanol_1071.chk
%nproc=8
%mem=16000MB
#p B2PLYPD3/Def2QZVP 

methanol

0 1
C  -5.181103  -1.259751   0.917492
O  -3.761624  -1.119971   0.851262
H  -5.527615  -2.252183   0.541643
H  -5.712913  -0.418707   0.314464
H  -5.461280  -1.181596   1.987062
H  -3.507449  -1.202642   0.081282

