%chk=/home/boittier/MDCM/nms_sampling/methanol_geom.xyz.dir/methanol_2793.chk
%nproc=8
%mem=16000MB
#p B2PLYPD3/Def2QZVP 

methanol

0 1
C  -5.178748  -1.233237   0.902785
O  -3.765447  -1.127382   0.842229
H  -5.377787  -2.468165   0.515577
H  -5.750036  -0.466837   0.366466
H  -5.523151  -1.109943   2.045479
H  -3.539486  -1.194380   0.320708

