%chk=/home/boittier/MDCM/nms_sampling/methanol_geom.xyz.dir/methanol_130.chk
%nproc=8
%mem=16000MB
#p B2PLYPD3/Def2QZVP 

methanol

0 1
C  -5.189756  -1.259934   0.906625
O  -3.760170  -1.120452   0.873173
H  -5.504648  -2.171468   0.595165
H  -5.686277  -0.503992   0.369247
H  -5.435337  -1.173120   1.932873
H  -3.506113  -1.195282  -0.203319

