%chk=/home/boittier/MDCM/nms_sampling/methanol_geom.xyz.dir/methanol_2071.chk
%nproc=8
%mem=16000MB
#p B2PLYPD3/Def2QZVP 

methanol

0 1
C  -5.168673  -1.254054   0.909655
O  -3.777583  -1.118706   0.877257
H  -5.468347  -2.219182   0.573756
H  -5.703632  -0.559834   0.369745
H  -5.393793  -1.140618   1.891066
H  -3.543289  -1.213256  -0.243065
