%chk=/home/boittier/MDCM/nms_sampling/methanol_geom.xyz.dir/methanol_2896.chk
%nproc=8
%mem=16000MB
#p B2PLYPD3/Def2QZVP 

methanol

0 1
C  -5.155129  -1.251680   0.907354
O  -3.775428  -1.129220   0.846417
H  -5.370486  -2.277968   0.521307
H  -5.773057  -0.376855   0.287727
H  -5.605083  -1.164565   2.046699
H  -3.538393  -1.190060   0.265578
