%chk=/home/boittier/MDCM/nms_sampling/methanol_geom.xyz.dir/methanol_3249.chk
%nproc=8
%mem=16000MB
#p B2PLYPD3/Def2QZVP 

methanol

0 1
C  -5.151066  -1.233377   0.901812
O  -3.781958  -1.133086   0.888439
H  -5.511266  -2.161208   0.569304
H  -5.777579  -0.630419   0.398385
H  -5.521148  -1.223198   1.899625
H  -3.428257  -1.139365  -0.369286

