%chk=/home/boittier/MDCM/nms_sampling/methanol_geom.xyz.dir/methanol_693.chk
%nproc=8
%mem=16000MB
#p B2PLYPD3/Def2QZVP 

methanol

0 1
C  -5.182078  -1.257731   0.916702
O  -3.762584  -1.121632   0.870952
H  -5.523432  -2.183501   0.572031
H  -5.668287  -0.477926   0.364619
H  -5.471031  -1.192485   1.885958
H  -3.518744  -1.198560  -0.209504

