%chk=/home/boittier/MDCM/nms_sampling/methanol_geom.xyz.dir/methanol_2767.chk
%nproc=8
%mem=16000MB
#p B2PLYPD3/Def2QZVP 

methanol

0 1
C  -5.188288  -1.272344   0.902445
O  -3.767990  -1.123613   0.885885
H  -5.456415  -2.043117   0.609476
H  -5.636923  -0.521427   0.375469
H  -5.432231  -1.119658   1.920189
H  -3.492756  -1.169211  -0.372703

