%chk=/home/boittier/MDCM/nms_sampling/methanol_geom.xyz.dir/methanol_442.chk
%nproc=8
%mem=16000MB
#p B2PLYPD3/Def2QZVP 

methanol

0 1
C  -5.177206  -1.257544   0.912605
O  -3.764911  -1.120914   0.860447
H  -5.508530  -2.241072   0.532657
H  -5.715089  -0.452627   0.374074
H  -5.477255  -1.162774   1.953154
H  -3.503362  -1.208416  -0.027200

