%chk=/home/boittier/MDCM/nms_sampling/methanol_geom.xyz.dir/methanol_3286.chk
%nproc=8
%mem=16000MB
#p B2PLYPD3/Def2QZVP 

methanol

0 1
C  -5.188891  -1.253529   0.903966
O  -3.774544  -1.125345   0.897343
H  -5.446368  -2.168553   0.621678
H  -5.715978  -0.630868   0.397440
H  -5.389246  -1.054644   1.807850
H  -3.373410  -1.180861  -0.496282
