%chk=/home/boittier/MDCM/nms_sampling/methanol_geom.xyz.dir/methanol_2279.chk
%nproc=8
%mem=16000MB
#p B2PLYPD3/Def2QZVP 

methanol

0 1
C  -5.182016  -1.261212   0.925784
O  -3.771493  -1.121370   0.873780
H  -5.552324  -2.168657   0.593249
H  -5.663059  -0.488717   0.315045
H  -5.399857  -1.160939   1.834581
H  -3.428010  -1.195179  -0.283046

