%chk=/home/boittier/MDCM/nms_sampling/methanol_geom.xyz.dir/methanol_3314.chk
%nproc=8
%mem=16000MB
#p B2PLYPD3/Def2QZVP 

methanol

0 1
C  -5.205376  -1.273001   0.920730
O  -3.749247  -1.117629   0.866078
H  -5.556708  -2.147552   0.492515
H  -5.678480  -0.505358   0.362106
H  -5.380895  -1.120437   1.946252
H  -3.507258  -1.163265  -0.160563
