%chk=/home/boittier/MDCM/nms_sampling/methanol_geom.xyz.dir/methanol_3402.chk
%nproc=8
%mem=16000MB
#p B2PLYPD3/Def2QZVP 

methanol

0 1
C  -5.197901  -1.247256   0.934421
O  -3.746755  -1.129359   0.872992
H  -5.611689  -2.230508   0.531251
H  -5.702523  -0.548662   0.336122
H  -5.539614  -1.134293   1.802385
H  -3.399452  -1.142344  -0.298942

