%chk=/home/boittier/MDCM/nms_sampling/methanol_geom.xyz.dir/methanol_3268.chk
%nproc=8
%mem=16000MB
#p B2PLYPD3/Def2QZVP 

methanol

0 1
C  -5.187871  -1.249452   0.926299
O  -3.758221  -1.127866   0.883911
H  -5.561036  -2.054170   0.564441
H  -5.523890  -0.595092   0.350068
H  -5.614349  -1.175354   1.859196
H  -3.482763  -1.230770  -0.491057
