%chk=/home/boittier/MDCM/nms_sampling/methanol_geom.xyz.dir/methanol_949.chk
%nproc=8
%mem=16000MB
#p B2PLYPD3/Def2QZVP 

methanol

0 1
C  -5.185869  -1.255866   0.919739
O  -3.767370  -1.123846   0.850586
H  -5.496371  -2.261358   0.527364
H  -5.684622  -0.419384   0.315653
H  -5.437963  -1.167822   1.978773
H  -3.445025  -1.188444   0.087300

