%chk=/home/boittier/MDCM/nms_sampling/methanol_geom.xyz.dir/methanol_2910.chk
%nproc=8
%mem=16000MB
#p B2PLYPD3/Def2QZVP 

methanol

0 1
C  -5.190282  -1.264274   0.929051
O  -3.776377  -1.131480   0.883461
H  -5.550448  -2.110130   0.611481
H  -5.538373  -0.462164   0.387826
H  -5.416789  -1.121254   1.746473
H  -3.356603  -1.128908  -0.478639
