%chk=/home/boittier/MDCM/nms_sampling/methanol_geom.xyz.dir/methanol_2964.chk
%nproc=8
%mem=16000MB
#p B2PLYPD3/Def2QZVP 

methanol

0 1
C  -5.197303  -1.255741   0.919186
O  -3.747728  -1.132317   0.847587
H  -5.636540  -2.178401   0.576241
H  -5.689269  -0.430340   0.260837
H  -5.543250  -1.200906   2.053482
H  -3.362847  -1.108401   0.070371
