%chk=/home/boittier/MDCM/nms_sampling/methanol_geom.xyz.dir/methanol_3504.chk
%nproc=8
%mem=16000MB
#p B2PLYPD3/Def2QZVP 

methanol

0 1
C  -5.158724  -1.257563   0.920472
O  -3.782493  -1.119950   0.870846
H  -5.546916  -2.137149   0.631773
H  -5.564342  -0.543866   0.279812
H  -5.415118  -1.193759   1.927245
H  -3.611510  -1.202557  -0.272352
