%chk=/home/boittier/MDCM/nms_sampling/methanol_geom.xyz.dir/methanol_3133.chk
%nproc=8
%mem=16000MB
#p B2PLYPD3/Def2QZVP 

methanol

0 1
C  -5.167409  -1.256410   0.914556
O  -3.757805  -1.118331   0.867015
H  -5.700883  -2.213695   0.556515
H  -5.671980  -0.573688   0.413236
H  -5.497592  -1.142990   1.957885
H  -3.563894  -1.189360  -0.226649

