%chk=/home/boittier/MDCM/nms_sampling/methanol_geom.xyz.dir/methanol_2163.chk
%nproc=8
%mem=16000MB
#p B2PLYPD3/Def2QZVP 

methanol

0 1
C  -5.179961  -1.256892   0.911327
O  -3.765492  -1.127770   0.868216
H  -5.571532  -2.138130   0.583121
H  -5.669710  -0.465586   0.367602
H  -5.496593  -1.206625   1.949406
H  -3.416933  -1.159586  -0.180733

