%chk=/home/boittier/MDCM/nms_sampling/methanol_geom.xyz.dir/methanol_2410.chk
%nproc=8
%mem=16000MB
#p B2PLYPD3/Def2QZVP 

methanol

0 1
C  -5.163710  -1.238759   0.927456
O  -3.764699  -1.117200   0.864473
H  -5.550511  -2.282921   0.512378
H  -5.712543  -0.552818   0.328142
H  -5.543772  -1.218028   1.884253
H  -3.567076  -1.283971  -0.134277

