%chk=/home/boittier/MDCM/nms_sampling/methanol_geom.xyz.dir/methanol_3441.chk
%nproc=8
%mem=16000MB
#p B2PLYPD3/Def2QZVP 

methanol

0 1
C  -5.149592  -1.246306   0.922240
O  -3.783464  -1.124845   0.866189
H  -5.667510  -2.219269   0.548193
H  -5.584160  -0.565229   0.410528
H  -5.526448  -1.126185   1.921501
H  -3.458572  -1.221082  -0.255093

