%chk=/home/boittier/MDCM/nms_sampling/methanol_geom.xyz.dir/methanol_2150.chk
%nproc=8
%mem=16000MB
#p B2PLYPD3/Def2QZVP 

methanol

0 1
C  -5.194151  -1.258515   0.908350
O  -3.758187  -1.120049   0.877634
H  -5.512004  -2.177140   0.584944
H  -5.684954  -0.576696   0.363869
H  -5.411403  -1.124710   1.923219
H  -3.509606  -1.185376  -0.273177
