%chk=/home/boittier/MDCM/nms_sampling/methanol_geom.xyz.dir/methanol_3454.chk
%nproc=8
%mem=16000MB
#p B2PLYPD3/Def2QZVP 

methanol

0 1
C  -5.209313  -1.245846   0.917233
O  -3.752459  -1.128088   0.827542
H  -5.523010  -2.366211   0.432116
H  -5.637049  -0.458619   0.345617
H  -5.435536  -1.117990   2.152798
H  -3.439569  -1.140317   0.381166

