%chk=/home/boittier/MDCM/nms_sampling/methanol_geom.xyz.dir/methanol_1656.chk
%nproc=8
%mem=16000MB
#p B2PLYPD3/Def2QZVP 

methanol

0 1
C  -5.186562  -1.255133   0.909162
O  -3.763053  -1.121235   0.846285
H  -5.425176  -2.307516   0.582676
H  -5.686406  -0.403808   0.289104
H  -5.456384  -1.167687   2.031325
H  -3.557327  -1.207443   0.201700
