%chk=/home/boittier/MDCM/nms_sampling/methanol_geom.xyz.dir/methanol_3491.chk
%nproc=8
%mem=16000MB
#p B2PLYPD3/Def2QZVP 

methanol

0 1
C  -5.202948  -1.245368   0.913401
O  -3.760849  -1.129667   0.897543
H  -5.348360  -2.150782   0.563326
H  -5.651845  -0.590282   0.402706
H  -5.502395  -1.136384   1.754509
H  -3.468932  -1.188869  -0.503943
