%chk=/home/boittier/MDCM/nms_sampling/methanol_geom.xyz.dir/methanol_2057.chk
%nproc=8
%mem=16000MB
#p B2PLYPD3/Def2QZVP 

methanol

0 1
C  -5.172142  -1.253911   0.900243
O  -3.765055  -1.120504   0.859848
H  -5.493084  -2.216246   0.572022
H  -5.695637  -0.469740   0.374067
H  -5.499844  -1.210205   2.034890
H  -3.570237  -1.218096   0.005162
