%chk=/home/boittier/MDCM/nms_sampling/methanol_geom.xyz.dir/methanol_1025.chk
%nproc=8
%mem=16000MB
#p B2PLYPD3/Def2QZVP 

methanol

0 1
C  -5.182566  -1.253416   0.916838
O  -3.762940  -1.121470   0.869219
H  -5.575774  -2.191722   0.544014
H  -5.659762  -0.527156   0.385976
H  -5.467553  -1.174805   1.920619
H  -3.472084  -1.209042  -0.212542

