%chk=/home/boittier/MDCM/nms_sampling/methanol_geom.xyz.dir/methanol_3527.chk
%nproc=8
%mem=16000MB
#p B2PLYPD3/Def2QZVP 

methanol

0 1
C  -5.193806  -1.253048   0.908864
O  -3.747555  -1.125141   0.863528
H  -5.521727  -2.256858   0.609032
H  -5.784947  -0.413758   0.343569
H  -5.583334  -1.175716   1.914142
H  -3.394047  -1.211932  -0.037126
