%chk=/home/boittier/MDCM/nms_sampling/methanol_geom.xyz.dir/methanol_2389.chk
%nproc=8
%mem=16000MB
#p B2PLYPD3/Def2QZVP 

methanol

0 1
C  -5.166084  -1.249272   0.912775
O  -3.775202  -1.130146   0.844696
H  -5.407313  -2.294812   0.508934
H  -5.728300  -0.368337   0.315989
H  -5.550834  -1.177827   2.020177
H  -3.478577  -1.178567   0.242515

