%chk=/home/boittier/MDCM/nms_sampling/methanol_geom.xyz.dir/methanol_2639.chk
%nproc=8
%mem=16000MB
#p B2PLYPD3/Def2QZVP 

methanol

0 1
C  -5.196713  -1.241617   0.894864
O  -3.759280  -1.126507   0.845380
H  -5.411070  -2.351150   0.500492
H  -5.653988  -0.480851   0.431552
H  -5.499932  -1.123284   2.118553
H  -3.509927  -1.201148   0.236182
