%chk=/home/boittier/MDCM/nms_sampling/methanol_geom.xyz.dir/methanol_2024.chk
%nproc=8
%mem=16000MB
#p B2PLYPD3/Def2QZVP 

methanol

0 1
C  -5.188156  -1.249687   0.914750
O  -3.760489  -1.128214   0.872851
H  -5.522012  -2.151917   0.568696
H  -5.629583  -0.520147   0.365271
H  -5.520233  -1.197847   1.917092
H  -3.470967  -1.174400  -0.248538
