%chk=/home/boittier/MDCM/nms_sampling/methanol_geom.xyz.dir/methanol_1300.chk
%nproc=8
%mem=16000MB
#p B2PLYPD3/Def2QZVP 

methanol

0 1
C  -5.191902  -1.241673   0.915787
O  -3.761974  -1.125690   0.862008
H  -5.503815  -2.243874   0.538781
H  -5.628083  -0.562411   0.337711
H  -5.463615  -1.172733   1.981552
H  -3.490329  -1.190439  -0.092220

