%chk=/home/boittier/MDCM/nms_sampling/methanol_geom.xyz.dir/methanol_2726.chk
%nproc=8
%mem=16000MB
#p B2PLYPD3/Def2QZVP 

methanol

0 1
C  -5.165050  -1.238991   0.901833
O  -3.764469  -1.124460   0.839765
H  -5.496328  -2.314936   0.452043
H  -5.740140  -0.471934   0.386864
H  -5.550397  -1.234329   2.153736
H  -3.567669  -1.202732   0.299938
