%chk=/home/boittier/MDCM/nms_sampling/methanol_geom.xyz.dir/methanol_739.chk
%nproc=8
%mem=16000MB
#p B2PLYPD3/Def2QZVP 

methanol

0 1
C  -5.171844  -1.253271   0.916578
O  -3.773784  -1.121760   0.869495
H  -5.532044  -2.211463   0.581684
H  -5.634123  -0.517577   0.360327
H  -5.437403  -1.167180   1.903746
H  -3.524196  -1.201677  -0.207762

