%chk=/home/boittier/MDCM/nms_sampling/methanol_geom.xyz.dir/methanol_2493.chk
%nproc=8
%mem=16000MB
#p B2PLYPD3/Def2QZVP 

methanol

0 1
C  -5.218619  -1.273398   0.930040
O  -3.746750  -1.118468   0.892454
H  -5.563722  -2.072426   0.580330
H  -5.601511  -0.547350   0.374271
H  -5.371772  -1.124223   1.734286
H  -3.471138  -1.174813  -0.584684

