%chk=/home/boittier/MDCM/nms_sampling/methanol_geom.xyz.dir/methanol_55.chk
%nproc=8
%mem=16000MB
#p B2PLYPD3/Def2QZVP 

methanol

0 1
C  -5.187337  -1.264559   0.910096
O  -3.757762  -1.121220   0.851608
H  -5.500844  -2.242679   0.550560
H  -5.733327  -0.388653   0.336590
H  -5.471901  -1.162559   2.006640
H  -3.489209  -1.188138   0.112798
