%chk=/home/boittier/MDCM/nms_sampling/methanol_geom.xyz.dir/methanol_2513.chk
%nproc=8
%mem=16000MB
#p B2PLYPD3/Def2QZVP 

methanol

0 1
C  -5.185584  -1.238677   0.933155
O  -3.773039  -1.130212   0.825464
H  -5.389610  -2.379797   0.492920
H  -5.570641  -0.383823   0.204321
H  -5.560735  -1.130480   2.056631
H  -3.461607  -1.241575   0.406413
