%chk=/home/boittier/MDCM/nms_sampling/methanol_geom.xyz.dir/methanol_1553.chk
%nproc=8
%mem=16000MB
#p B2PLYPD3/Def2QZVP 

methanol

0 1
C  -5.183751  -1.256180   0.919854
O  -3.764693  -1.117602   0.869091
H  -5.547942  -2.197428   0.515728
H  -5.622862  -0.551110   0.390480
H  -5.434264  -1.145036   1.918595
H  -3.532209  -1.233976  -0.221167
