%chk=/home/boittier/MDCM/nms_sampling/methanol_geom.xyz.dir/methanol_3531.chk
%nproc=8
%mem=16000MB
#p B2PLYPD3/Def2QZVP 

methanol

0 1
C  -5.150309  -1.265876   0.896390
O  -3.781609  -1.119892   0.892578
H  -5.495246  -2.001624   0.599793
H  -5.671290  -0.572433   0.409207
H  -5.531862  -1.165945   1.938707
H  -3.546769  -1.248363  -0.455553
