%chk=/home/boittier/MDCM/nms_sampling/methanol_geom.xyz.dir/methanol_2273.chk
%nproc=8
%mem=16000MB
#p B2PLYPD3/Def2QZVP 

methanol

0 1
C  -5.178037  -1.245182   0.920887
O  -3.766008  -1.126466   0.870420
H  -5.553143  -2.159208   0.575912
H  -5.596935  -0.541118   0.332294
H  -5.549817  -1.202817   1.916653
H  -3.476203  -1.219926  -0.255617

