%chk=/home/boittier/MDCM/nms_sampling/methanol_geom.xyz.dir/methanol_1692.chk
%nproc=8
%mem=16000MB
#p B2PLYPD3/Def2QZVP 

methanol

0 1
C  -5.186213  -1.256255   0.903046
O  -3.763276  -1.120535   0.854682
H  -5.448004  -2.231743   0.575059
H  -5.695910  -0.480093   0.300774
H  -5.437597  -1.169549   2.068049
H  -3.544639  -1.202467   0.091079
