%chk=/home/boittier/MDCM/nms_sampling/methanol_geom.xyz.dir/methanol_372.chk
%nproc=8
%mem=16000MB
#p B2PLYPD3/Def2QZVP 

methanol

0 1
C  -5.179251  -1.255636   0.922011
O  -3.769984  -1.122452   0.854509
H  -5.480142  -2.248868   0.532799
H  -5.650324  -0.435268   0.316414
H  -5.445591  -1.177695   1.949312
H  -3.522899  -1.199248   0.019859

