%chk=/home/boittier/MDCM/nms_sampling/methanol_geom.xyz.dir/methanol_143.chk
%nproc=8
%mem=16000MB
#p B2PLYPD3/Def2QZVP 

methanol

0 1
C  -5.185466  -1.260228   0.908279
O  -3.760260  -1.119723   0.854269
H  -5.523883  -2.249470   0.536170
H  -5.732892  -0.445228   0.360416
H  -5.452744  -1.152005   2.017659
H  -3.473422  -1.205451   0.069046

