%chk=/home/boittier/MDCM/nms_sampling/methanol_geom.xyz.dir/methanol_664.chk
%nproc=8
%mem=16000MB
#p B2PLYPD3/Def2QZVP 

methanol

0 1
C  -5.177630  -1.257040   0.908269
O  -3.768058  -1.121726   0.852359
H  -5.508680  -2.258222   0.534638
H  -5.742616  -0.457414   0.334237
H  -5.447300  -1.143498   2.037832
H  -3.452827  -1.197583   0.106559
