%chk=/home/boittier/MDCM/nms_sampling/methanol_geom.xyz.dir/methanol_2487.chk
%nproc=8
%mem=16000MB
#p B2PLYPD3/Def2QZVP 

methanol

0 1
C  -5.151980  -1.270313   0.906825
O  -3.774703  -1.118401   0.902545
H  -5.499922  -2.068074   0.530079
H  -5.835939  -0.559177   0.457541
H  -5.455159  -1.153166   1.769148
H  -3.545718  -1.178441  -0.545757
