%chk=/home/boittier/MDCM/nms_sampling/methanol_geom.xyz.dir/methanol_1763.chk
%nproc=8
%mem=16000MB
#p B2PLYPD3/Def2QZVP 

methanol

0 1
C  -5.194888  -1.262905   0.922453
O  -3.760838  -1.120236   0.843244
H  -5.547293  -2.237690   0.509468
H  -5.648702  -0.413910   0.301910
H  -5.407030  -1.165561   2.037857
H  -3.459049  -1.194802   0.145668

