%chk=/home/boittier/MDCM/nms_sampling/methanol_geom.xyz.dir/methanol_3102.chk
%nproc=8
%mem=16000MB
#p B2PLYPD3/Def2QZVP 

methanol

0 1
C  -5.184855  -1.271823   0.937104
O  -3.761850  -1.125259   0.834516
H  -5.561395  -2.235548   0.452455
H  -5.738860  -0.257076   0.276044
H  -5.517464  -1.162360   1.969197
H  -3.334232  -1.185457   0.270450

