%chk=/home/boittier/MDCM/nms_sampling/methanol_geom.xyz.dir/methanol_80.chk
%nproc=8
%mem=16000MB
#p B2PLYPD3/Def2QZVP 

methanol

0 1
C  -5.184740  -1.251001   0.920738
O  -3.761261  -1.121701   0.870040
H  -5.561613  -2.232764   0.556967
H  -5.683352  -0.513488   0.371725
H  -5.467642  -1.172184   1.867807
H  -3.465512  -1.208244  -0.215357
