%chk=/home/boittier/MDCM/nms_sampling/methanol_geom.xyz.dir/methanol_2267.chk
%nproc=8
%mem=16000MB
#p B2PLYPD3/Def2QZVP 

methanol

0 1
C  -5.161193  -1.243613   0.906002
O  -3.778300  -1.127059   0.858666
H  -5.497958  -2.228326   0.566503
H  -5.682931  -0.484116   0.347849
H  -5.531316  -1.204537   2.021008
H  -3.465454  -1.213437   0.001786

