%chk=/home/boittier/MDCM/nms_sampling/methanol_geom.xyz.dir/methanol_2609.chk
%nproc=8
%mem=16000MB
#p B2PLYPD3/Def2QZVP 

methanol

0 1
C  -5.199143  -1.260059   0.904277
O  -3.748758  -1.131241   0.837313
H  -5.498856  -2.203991   0.495349
H  -5.741357  -0.364425   0.312190
H  -5.568635  -1.176876   2.166811
H  -3.384707  -1.139090   0.328334

