%chk=/home/boittier/MDCM/nms_sampling/methanol_geom.xyz.dir/methanol_1227.chk
%nproc=8
%mem=16000MB
#p B2PLYPD3/Def2QZVP 

methanol

0 1
C  -5.182679  -1.262699   0.905581
O  -3.765852  -1.119317   0.873284
H  -5.514134  -2.187424   0.560446
H  -5.745413  -0.543867   0.370508
H  -5.384439  -1.119867   1.952392
H  -3.484803  -1.175605  -0.181035
