%chk=/home/boittier/MDCM/nms_sampling/methanol_geom.xyz.dir/methanol_2263.chk
%nproc=8
%mem=16000MB
#p B2PLYPD3/Def2QZVP 

methanol

0 1
C  -5.163065  -1.245721   0.922187
O  -3.776096  -1.128351   0.838162
H  -5.538375  -2.306542   0.484525
H  -5.645032  -0.461041   0.304345
H  -5.518569  -1.142032   2.072049
H  -3.490947  -1.175401   0.219379
