%chk=/home/boittier/MDCM/nms_sampling/methanol_geom.xyz.dir/methanol_1912.chk
%nproc=8
%mem=16000MB
#p B2PLYPD3/Def2QZVP 

methanol

0 1
C  -5.174838  -1.250372   0.905308
O  -3.761287  -1.117478   0.842364
H  -5.541159  -2.313683   0.522594
H  -5.730241  -0.446534   0.357740
H  -5.486261  -1.198105   2.099397
H  -3.536254  -1.241629   0.232591

