%chk=/home/boittier/MDCM/nms_sampling/methanol_geom.xyz.dir/methanol_557.chk
%nproc=8
%mem=16000MB
#p B2PLYPD3/Def2QZVP 

methanol

0 1
C  -5.174280  -1.254180   0.911010
O  -3.766440  -1.120200   0.864903
H  -5.489989  -2.241023   0.535419
H  -5.716813  -0.477044   0.385007
H  -5.487470  -1.169441   1.935353
H  -3.521636  -1.226415  -0.077126

