%chk=/home/boittier/MDCM/nms_sampling/methanol_geom.xyz.dir/methanol_2234.chk
%nproc=8
%mem=16000MB
#p B2PLYPD3/Def2QZVP 

methanol

0 1
C  -5.184367  -1.252254   0.899633
O  -3.758098  -1.124304   0.870152
H  -5.541926  -2.221964   0.583879
H  -5.750510  -0.534591   0.396372
H  -5.479302  -1.150376   1.979845
H  -3.459270  -1.166787  -0.134649

