%chk=/home/boittier/MDCM/nms_sampling/methanol_geom.xyz.dir/methanol_3492.chk
%nproc=8
%mem=16000MB
#p B2PLYPD3/Def2QZVP 

methanol

0 1
C  -5.179722  -1.256096   0.926206
O  -3.767167  -1.131918   0.848625
H  -5.592484  -2.205237   0.547932
H  -5.679361  -0.324644   0.321832
H  -5.509443  -1.252712   1.941413
H  -3.343860  -1.134773   0.056785

