%chk=/home/boittier/MDCM/nms_sampling/methanol_geom.xyz.dir/methanol_16.chk
%nproc=8
%mem=16000MB
#p B2PLYPD3/Def2QZVP 

methanol

0 1
C  -5.173936  -1.259407   0.911815
O  -3.767736  -1.120876   0.852664
H  -5.505788  -2.262311   0.513681
H  -5.758141  -0.435019   0.344872
H  -5.447253  -1.155241   2.005974
H  -3.486350  -1.190833   0.103057

