%chk=/home/boittier/MDCM/nms_sampling/methanol_geom.xyz.dir/methanol_1251.chk
%nproc=8
%mem=16000MB
#p B2PLYPD3/Def2QZVP 

methanol

0 1
C  -5.168783  -1.257384   0.915456
O  -3.777279  -1.116732   0.853192
H  -5.537146  -2.270672   0.540214
H  -5.641993  -0.490688   0.348251
H  -5.402935  -1.126031   2.004622
H  -3.531110  -1.238147   0.023179
