%chk=/home/boittier/MDCM/nms_sampling/methanol_geom.xyz.dir/methanol_3316.chk
%nproc=8
%mem=16000MB
#p B2PLYPD3/Def2QZVP 

methanol

0 1
C  -5.158333  -1.256907   0.902273
O  -3.783002  -1.122996   0.897364
H  -5.413378  -2.118075   0.553151
H  -5.716846  -0.596955   0.447943
H  -5.450494  -1.130125   1.826002
H  -3.556565  -1.191128  -0.478258
