%chk=/home/boittier/MDCM/nms_sampling/methanol_geom.xyz.dir/methanol_2259.chk
%nproc=8
%mem=16000MB
#p B2PLYPD3/Def2QZVP 

methanol

0 1
C  -5.173185  -1.268186   0.907468
O  -3.769397  -1.123561   0.854393
H  -5.532824  -2.185673   0.568166
H  -5.708961  -0.402252   0.337641
H  -5.462706  -1.151570   2.030043
H  -3.467283  -1.165080   0.054515

