%chk=/home/boittier/MDCM/nms_sampling/methanol_geom.xyz.dir/methanol_1579.chk
%nproc=8
%mem=16000MB
#p B2PLYPD3/Def2QZVP 

methanol

0 1
C  -5.178427  -1.257508   0.912310
O  -3.768340  -1.120517   0.872716
H  -5.587215  -2.191687   0.584377
H  -5.673502  -0.551940   0.377607
H  -5.391525  -1.150017   1.923171
H  -3.486456  -1.174217  -0.250817

