%chk=/home/boittier/MDCM/nms_sampling/methanol_geom.xyz.dir/methanol_3054.chk
%nproc=8
%mem=16000MB
#p B2PLYPD3/Def2QZVP 

methanol

0 1
C  -5.174164  -1.263252   0.890729
O  -3.761187  -1.115625   0.835307
H  -5.555556  -2.338642   0.542370
H  -5.851254  -0.423684   0.344065
H  -5.372230  -1.152025   2.203101
H  -3.523227  -1.164851   0.408442

