%chk=/home/boittier/MDCM/nms_sampling/methanol_geom.xyz.dir/methanol_2662.chk
%nproc=8
%mem=16000MB
#p B2PLYPD3/Def2QZVP 

methanol

0 1
C  -5.136541  -1.266534   0.929352
O  -3.785961  -1.122572   0.830357
H  -5.518682  -2.318933   0.536955
H  -5.667759  -0.239316   0.281601
H  -5.563024  -1.167355   1.980958
H  -3.582511  -1.216769   0.332717
