%chk=/home/boittier/MDCM/nms_sampling/methanol_geom.xyz.dir/methanol_2909.chk
%nproc=8
%mem=16000MB
#p B2PLYPD3/Def2QZVP 

methanol

0 1
C  -5.189534  -1.260529   0.910033
O  -3.772229  -1.129176   0.892773
H  -5.468746  -2.128852   0.583758
H  -5.739177  -0.495999   0.429158
H  -5.434647  -1.119646   1.768809
H  -3.299325  -1.156621  -0.444575
