%chk=/home/boittier/MDCM/nms_sampling/methanol_geom.xyz.dir/methanol_2343.chk
%nproc=8
%mem=16000MB
#p B2PLYPD3/Def2QZVP 

methanol

0 1
C  -5.173488  -1.246595   0.898959
O  -3.778833  -1.124376   0.872445
H  -5.465450  -2.212136   0.557982
H  -5.656967  -0.559205   0.429131
H  -5.440211  -1.148555   1.980917
H  -3.470077  -1.211065  -0.172803

