%chk=/home/boittier/MDCM/nms_sampling/methanol_geom.xyz.dir/methanol_3393.chk
%nproc=8
%mem=16000MB
#p B2PLYPD3/Def2QZVP 

methanol

0 1
C  -5.149737  -1.237484   0.908240
O  -3.782871  -1.128646   0.890819
H  -5.466857  -2.191025   0.504408
H  -5.789314  -0.602869   0.451149
H  -5.487087  -1.220889   1.821625
H  -3.497498  -1.158170  -0.391037
