%chk=/home/boittier/MDCM/nms_sampling/methanol_geom.xyz.dir/methanol_2265.chk
%nproc=8
%mem=16000MB
#p B2PLYPD3/Def2QZVP 

methanol

0 1
C  -5.185904  -1.262584   0.921332
O  -3.766236  -1.117659   0.872687
H  -5.586266  -2.191594   0.560957
H  -5.648816  -0.508800   0.390297
H  -5.376761  -1.149163   1.859268
H  -3.473145  -1.203505  -0.279569

