%chk=/home/boittier/MDCM/nms_sampling/methanol_geom.xyz.dir/methanol_507.chk
%nproc=8
%mem=16000MB
#p B2PLYPD3/Def2QZVP 

methanol

0 1
C  -5.180217  -1.251348   0.916075
O  -3.764596  -1.126022   0.867299
H  -5.552153  -2.183725   0.581772
H  -5.637343  -0.500308   0.350216
H  -5.504400  -1.190280   1.930358
H  -3.477508  -1.184377  -0.183587

