%chk=/home/boittier/MDCM/nms_sampling/methanol_geom.xyz.dir/methanol_411.chk
%nproc=8
%mem=16000MB
#p B2PLYPD3/Def2QZVP 

methanol

0 1
C  -5.180942  -1.252332   0.907139
O  -3.765506  -1.119445   0.873694
H  -5.502332  -2.206160   0.590035
H  -5.665370  -0.553624   0.375448
H  -5.447106  -1.162085   1.933497
H  -3.541280  -1.222572  -0.219865
