%chk=/home/boittier/MDCM/nms_sampling/methanol_geom.xyz.dir/methanol_712.chk
%nproc=8
%mem=16000MB
#p B2PLYPD3/Def2QZVP 

methanol

0 1
C  -5.179310  -1.249143   0.911527
O  -3.763846  -1.122423   0.871223
H  -5.549679  -2.208012   0.560898
H  -5.682356  -0.539619   0.389116
H  -5.484544  -1.179958   1.926045
H  -3.483121  -1.209592  -0.207922
