%chk=/home/boittier/MDCM/nms_sampling/methanol_geom.xyz.dir/methanol_1606.chk
%nproc=8
%mem=16000MB
#p B2PLYPD3/Def2QZVP 

methanol

0 1
C  -5.173101  -1.252475   0.904094
O  -3.771375  -1.119330   0.883517
H  -5.467435  -2.193488   0.582217
H  -5.688090  -0.551101   0.431095
H  -5.420442  -1.189499   1.868295
H  -3.576428  -1.209123  -0.325013

