%chk=/home/boittier/MDCM/nms_sampling/methanol_geom.xyz.dir/methanol_2120.chk
%nproc=8
%mem=16000MB
#p B2PLYPD3/Def2QZVP 

methanol

0 1
C  -5.185313  -1.248390   0.918251
O  -3.768386  -1.125406   0.854774
H  -5.567032  -2.260282   0.546179
H  -5.635104  -0.492499   0.349113
H  -5.439273  -1.159327   1.983579
H  -3.417396  -1.184967  -0.020883

