%chk=/home/boittier/MDCM/nms_sampling/methanol_geom.xyz.dir/methanol_1847.chk
%nproc=8
%mem=16000MB
#p B2PLYPD3/Def2QZVP 

methanol

0 1
C  -5.157891  -1.255768   0.924448
O  -3.776537  -1.119266   0.878116
H  -5.544955  -2.192189   0.517795
H  -5.676915  -0.535825   0.402030
H  -5.468155  -1.160282   1.816286
H  -3.556568  -1.220521  -0.331416

