%chk=/home/boittier/MDCM/nms_sampling/methanol_geom.xyz.dir/methanol_996.chk
%nproc=8
%mem=16000MB
#p B2PLYPD3/Def2QZVP 

methanol

0 1
C  -5.172939  -1.259670   0.909691
O  -3.769092  -1.119558   0.869000
H  -5.560097  -2.193459   0.563807
H  -5.710177  -0.516472   0.377448
H  -5.442086  -1.143535   1.949680
H  -3.477215  -1.206661  -0.165441

