%chk=/home/boittier/MDCM/nms_sampling/methanol_geom.xyz.dir/methanol_2380.chk
%nproc=8
%mem=16000MB
#p B2PLYPD3/Def2QZVP 

methanol

0 1
C  -5.164065  -1.241288   0.911719
O  -3.773837  -1.125422   0.881245
H  -5.535605  -2.213711   0.573455
H  -5.686671  -0.561405   0.424496
H  -5.522190  -1.190727   1.846497
H  -3.474914  -1.215059  -0.339857
