%chk=/home/boittier/MDCM/nms_sampling/methanol_geom.xyz.dir/methanol_3300.chk
%nproc=8
%mem=16000MB
#p B2PLYPD3/Def2QZVP 

methanol

0 1
C  -5.178450  -1.252412   0.921989
O  -3.775931  -1.129234   0.883016
H  -5.567820  -2.265115   0.590402
H  -5.688487  -0.549083   0.418321
H  -5.392420  -1.059940   1.749338
H  -3.372714  -1.115024  -0.399093

