%chk=/home/boittier/MDCM/nms_sampling/methanol_geom.xyz.dir/methanol_2861.chk
%nproc=8
%mem=16000MB
#p B2PLYPD3/Def2QZVP 

methanol

0 1
C  -5.182502  -1.270524   0.909022
O  -3.747287  -1.116101   0.828476
H  -5.613886  -2.268956   0.515623
H  -5.747504  -0.355428   0.306667
H  -5.501809  -1.175667   2.177453
H  -3.552972  -1.196820   0.394041
