%chk=/home/boittier/MDCM/nms_sampling/methanol_geom.xyz.dir/methanol_229.chk
%nproc=8
%mem=16000MB
#p B2PLYPD3/Def2QZVP 

methanol

0 1
C  -5.184587  -1.256748   0.910808
O  -3.767448  -1.124652   0.850483
H  -5.489292  -2.240480   0.555139
H  -5.698613  -0.434777   0.302713
H  -5.440374  -1.164108   2.039512
H  -3.448152  -1.175941   0.116574
