%chk=/home/boittier/MDCM/nms_sampling/methanol_geom.xyz.dir/methanol_2083.chk
%nproc=8
%mem=16000MB
#p B2PLYPD3/Def2QZVP 

methanol

0 1
C  -5.185058  -1.249367   0.907415
O  -3.760778  -1.124037   0.845913
H  -5.487168  -2.321397   0.505582
H  -5.786321  -0.383043   0.375051
H  -5.485622  -1.208056   2.024606
H  -3.419810  -1.198241   0.227345
