%chk=/home/boittier/MDCM/nms_sampling/methanol_geom.xyz.dir/methanol_628.chk
%nproc=8
%mem=16000MB
#p B2PLYPD3/Def2QZVP 

methanol

0 1
C  -5.179160  -1.250022   0.913607
O  -3.765589  -1.125554   0.855624
H  -5.475709  -2.254936   0.545960
H  -5.703600  -0.450205   0.321646
H  -5.507590  -1.180614   1.983492
H  -3.482870  -1.194669   0.047253
