%chk=/home/boittier/MDCM/nms_sampling/methanol_geom.xyz.dir/methanol_3167.chk
%nproc=8
%mem=16000MB
#p B2PLYPD3/Def2QZVP 

methanol

0 1
C  -5.184546  -1.260401   0.896642
O  -3.775713  -1.127229   0.840500
H  -5.475335  -2.276066   0.582609
H  -5.728511  -0.400238   0.304770
H  -5.424700  -1.082237   2.151537
H  -3.320059  -1.173326   0.304883
