%chk=/home/boittier/MDCM/nms_sampling/methanol_geom.xyz.dir/methanol_1971.chk
%nproc=8
%mem=16000MB
#p B2PLYPD3/Def2QZVP 

methanol

0 1
C  -5.186021  -1.259159   0.915617
O  -3.768587  -1.123907   0.876156
H  -5.506683  -2.169310   0.560158
H  -5.699270  -0.515747   0.361693
H  -5.434664  -1.124787   1.876262
H  -3.403732  -1.188051  -0.259012
