%chk=/home/boittier/MDCM/nms_sampling/methanol_geom.xyz.dir/methanol_2345.chk
%nproc=8
%mem=16000MB
#p B2PLYPD3/Def2QZVP 

methanol

0 1
C  -5.197083  -1.266347   0.926014
O  -3.756301  -1.120860   0.851856
H  -5.480949  -2.241240   0.531651
H  -5.663488  -0.390208   0.294413
H  -5.453201  -1.139243   1.935214
H  -3.508418  -1.194656   0.053982
