%chk=/home/boittier/MDCM/nms_sampling/methanol_geom.xyz.dir/methanol_127.chk
%nproc=8
%mem=16000MB
#p B2PLYPD3/Def2QZVP 

methanol

0 1
C  -5.179656  -1.253962   0.917894
O  -3.769174  -1.123985   0.851041
H  -5.552824  -2.262141   0.517090
H  -5.685286  -0.442936   0.353465
H  -5.443088  -1.166556   1.992575
H  -3.427838  -1.184963   0.060290
