%chk=/home/boittier/MDCM/nms_sampling/methanol_geom.xyz.dir/methanol_1728.chk
%nproc=8
%mem=16000MB
#p B2PLYPD3/Def2QZVP 

methanol

0 1
C  -5.171040  -1.241741   0.925086
O  -3.775159  -1.127625   0.875442
H  -5.531959  -2.259182   0.554973
H  -5.618078  -0.562764   0.391013
H  -5.478611  -1.137579   1.812326
H  -3.490866  -1.178892  -0.315419

