%chk=/home/boittier/MDCM/nms_sampling/methanol_geom.xyz.dir/methanol_173.chk
%nproc=8
%mem=16000MB
#p B2PLYPD3/Def2QZVP 

methanol

0 1
C  -5.179209  -1.255979   0.911361
O  -3.769388  -1.122088   0.853217
H  -5.480693  -2.275841   0.516238
H  -5.740077  -0.439498   0.350498
H  -5.431144  -1.153055   1.998302
H  -3.460068  -1.193542   0.099441

