%chk=/home/boittier/MDCM/nms_sampling/methanol_geom.xyz.dir/methanol_2195.chk
%nproc=8
%mem=16000MB
#p B2PLYPD3/Def2QZVP 

methanol

0 1
C  -5.175392  -1.271780   0.905332
O  -3.766781  -1.118934   0.850761
H  -5.507574  -2.181197   0.556432
H  -5.753591  -0.400312   0.299176
H  -5.453747  -1.149571   2.076411
H  -3.474606  -1.203725   0.140169

