%chk=/home/boittier/MDCM/nms_sampling/methanol_geom.xyz.dir/methanol_3508.chk
%nproc=8
%mem=16000MB
#p B2PLYPD3/Def2QZVP 

methanol

0 1
C  -5.185109  -1.262504   0.897764
O  -3.772247  -1.130233   0.892947
H  -5.493820  -2.020371   0.664305
H  -5.735304  -0.553836   0.329327
H  -5.396077  -1.187745   1.911938
H  -3.360353  -1.102815  -0.434722
