%chk=/home/boittier/MDCM/nms_sampling/methanol_geom.xyz.dir/methanol_793.chk
%nproc=8
%mem=16000MB
#p B2PLYPD3/Def2QZVP 

methanol

0 1
C  -5.176412  -1.246706   0.908819
O  -3.772839  -1.124407   0.855978
H  -5.476551  -2.268900   0.533771
H  -5.669391  -0.477133   0.372105
H  -5.465623  -1.176456   2.006382
H  -3.479558  -1.209395   0.036966
