%chk=/home/boittier/MDCM/nms_sampling/methanol_geom.xyz.dir/methanol_919.chk
%nproc=8
%mem=16000MB
#p B2PLYPD3/Def2QZVP 

methanol

0 1
C  -5.183013  -1.246382   0.912192
O  -3.765746  -1.122775   0.850703
H  -5.470792  -2.317701   0.532682
H  -5.695820  -0.456702   0.344999
H  -5.469455  -1.170550   2.001350
H  -3.492714  -1.216338   0.117761

