%chk=/home/boittier/MDCM/nms_sampling/methanol_geom.xyz.dir/methanol_2171.chk
%nproc=8
%mem=16000MB
#p B2PLYPD3/Def2QZVP 

methanol

0 1
C  -5.196845  -1.246949   0.912020
O  -3.758542  -1.123836   0.874653
H  -5.472607  -2.245415   0.558941
H  -5.730189  -0.563910   0.356242
H  -5.424078  -1.149932   1.892660
H  -3.457025  -1.177746  -0.201918
