%chk=/home/boittier/MDCM/nms_sampling/methanol_geom.xyz.dir/methanol_3255.chk
%nproc=8
%mem=16000MB
#p B2PLYPD3/Def2QZVP 

methanol

0 1
C  -5.184187  -1.254536   0.926296
O  -3.774500  -1.116259   0.822208
H  -5.521687  -2.492938   0.511657
H  -5.734230  -0.335678   0.283265
H  -5.296467  -1.120951   2.025851
H  -3.431787  -1.211187   0.480776

