%chk=/home/boittier/MDCM/nms_sampling/methanol_geom.xyz.dir/methanol_3368.chk
%nproc=8
%mem=16000MB
#p B2PLYPD3/Def2QZVP 

methanol

0 1
C  -5.191859  -1.244423   0.907112
O  -3.775760  -1.130173   0.904606
H  -5.429350  -2.147866   0.546428
H  -5.770047  -0.635467   0.453420
H  -5.325545  -1.167871   1.747944
H  -3.342016  -1.111347  -0.572984
