%chk=/home/boittier/MDCM/nms_sampling/methanol_geom.xyz.dir/methanol_2828.chk
%nproc=8
%mem=16000MB
#p B2PLYPD3/Def2QZVP 

methanol

0 1
C  -5.181036  -1.262360   0.923525
O  -3.773125  -1.131378   0.838224
H  -5.504453  -2.269324   0.503887
H  -5.709096  -0.268374   0.323414
H  -5.495483  -1.161140   1.983436
H  -3.309897  -1.152136   0.259413
