%chk=/home/boittier/MDCM/nms_sampling/methanol_geom.xyz.dir/methanol_2388.chk
%nproc=8
%mem=16000MB
#p B2PLYPD3/Def2QZVP 

methanol

0 1
C  -5.183607  -1.254611   0.925648
O  -3.765821  -1.120037   0.844986
H  -5.488374  -2.301436   0.551533
H  -5.628617  -0.395560   0.284841
H  -5.471792  -1.173481   1.964573
H  -3.527982  -1.240446   0.132120
