%chk=/home/boittier/MDCM/nms_sampling/methanol_geom.xyz.dir/methanol_3503.chk
%nproc=8
%mem=16000MB
#p B2PLYPD3/Def2QZVP 

methanol

0 1
C  -5.188289  -1.261623   0.936942
O  -3.770286  -1.111700   0.889479
H  -5.556531  -2.161636   0.530117
H  -5.643601  -0.579134   0.376881
H  -5.287679  -1.171136   1.701265
H  -3.510829  -1.238621  -0.535899

