%chk=/home/boittier/MDCM/nms_sampling/methanol_geom.xyz.dir/methanol_390.chk
%nproc=8
%mem=16000MB
#p B2PLYPD3/Def2QZVP 

methanol

0 1
C  -5.172702  -1.252437   0.910987
O  -3.769670  -1.123427   0.852097
H  -5.507007  -2.254030   0.504684
H  -5.708054  -0.460314   0.360052
H  -5.493691  -1.161884   2.030768
H  -3.473520  -1.207912   0.090047
