%chk=/home/boittier/MDCM/nms_sampling/methanol_geom.xyz.dir/methanol_2893.chk
%nproc=8
%mem=16000MB
#p B2PLYPD3/Def2QZVP 

methanol

0 1
C  -5.145534  -1.247999   0.929483
O  -3.789320  -1.122033   0.869653
H  -5.577304  -2.137677   0.606852
H  -5.560084  -0.537026   0.269872
H  -5.510248  -1.224224   1.893184
H  -3.536392  -1.258561  -0.289841
