%chk=/home/boittier/MDCM/nms_sampling/methanol_geom.xyz.dir/methanol_190.chk
%nproc=8
%mem=16000MB
#p B2PLYPD3/Def2QZVP 

methanol

0 1
C  -5.171332  -1.250146   0.909192
O  -3.771342  -1.123309   0.858587
H  -5.484298  -2.248925   0.535974
H  -5.714182  -0.457536   0.366558
H  -5.487887  -1.192371   1.983814
H  -3.484619  -1.213260   0.016091

