%chk=/home/boittier/MDCM/nms_sampling/methanol_geom.xyz.dir/methanol_982.chk
%nproc=8
%mem=16000MB
#p B2PLYPD3/Def2QZVP 

methanol

0 1
C  -5.171316  -1.254961   0.918650
O  -3.768415  -1.121673   0.848842
H  -5.556277  -2.252190   0.508056
H  -5.680438  -0.452689   0.335613
H  -5.466619  -1.181968   2.019451
H  -3.513449  -1.195631   0.085579
