%chk=/home/boittier/MDCM/nms_sampling/methanol_geom.xyz.dir/methanol_2315.chk
%nproc=8
%mem=16000MB
#p B2PLYPD3/Def2QZVP 

methanol

0 1
C  -5.166532  -1.257627   0.919309
O  -3.773706  -1.120220   0.873752
H  -5.615820  -2.186038   0.582390
H  -5.653146  -0.528893   0.384220
H  -5.443783  -1.151466   1.871636
H  -3.478130  -1.206732  -0.301324
