%chk=/home/boittier/MDCM/nms_sampling/methanol_geom.xyz.dir/methanol_973.chk
%nproc=8
%mem=16000MB
#p B2PLYPD3/Def2QZVP 

methanol

0 1
C  -5.172828  -1.252952   0.921607
O  -3.770985  -1.124623   0.850981
H  -5.511892  -2.263844   0.518894
H  -5.688588  -0.427607   0.319047
H  -5.497094  -1.165842   1.969886
H  -3.460600  -1.203273   0.072784
