%chk=/home/boittier/MDCM/nms_sampling/methanol_geom.xyz.dir/methanol_1806.chk
%nproc=8
%mem=16000MB
#p B2PLYPD3/Def2QZVP 

methanol

0 1
C  -5.175047  -1.261684   0.903560
O  -3.763354  -1.118193   0.845233
H  -5.447605  -2.224071   0.519248
H  -5.717166  -0.406797   0.318655
H  -5.522258  -1.180790   2.113716
H  -3.563620  -1.250570   0.231346
