%chk=/home/boittier/MDCM/nms_sampling/methanol_geom.xyz.dir/methanol_3537.chk
%nproc=8
%mem=16000MB
#p B2PLYPD3/Def2QZVP 

methanol

0 1
C  -5.177810  -1.264519   0.927689
O  -3.765810  -1.119658   0.878314
H  -5.704676  -2.082481   0.517565
H  -5.650646  -0.590719   0.379910
H  -5.356913  -1.187873   1.883533
H  -3.468448  -1.140967  -0.423295

