%chk=/home/boittier/MDCM/nms_sampling/methanol_geom.xyz.dir/methanol_1195.chk
%nproc=8
%mem=16000MB
#p B2PLYPD3/Def2QZVP 

methanol

0 1
C  -5.185101  -1.252795   0.910883
O  -3.760176  -1.124433   0.864411
H  -5.531137  -2.226617   0.539764
H  -5.704470  -0.496868   0.384264
H  -5.488851  -1.159127   1.956723
H  -3.463748  -1.182647  -0.093625

