%chk=/home/boittier/MDCM/nms_sampling/methanol_geom.xyz.dir/methanol_2243.chk
%nproc=8
%mem=16000MB
#p B2PLYPD3/Def2QZVP 

methanol

0 1
C  -5.163378  -1.251189   0.906062
O  -3.774799  -1.130182   0.869200
H  -5.501597  -2.182026   0.594119
H  -5.674894  -0.484029   0.369227
H  -5.554274  -1.163244   1.952878
H  -3.471801  -1.168734  -0.150317

