%chk=/home/boittier/MDCM/nms_sampling/methanol_geom.xyz.dir/methanol_631.chk
%nproc=8
%mem=16000MB
#p B2PLYPD3/Def2QZVP 

methanol

0 1
C  -5.177946  -1.259061   0.915013
O  -3.763016  -1.121124   0.849538
H  -5.535658  -2.244481   0.556674
H  -5.663174  -0.425261   0.321807
H  -5.494120  -1.168707   2.017990
H  -3.530278  -1.207663   0.085110
