%chk=/home/boittier/MDCM/nms_sampling/methanol_geom.xyz.dir/methanol_1526.chk
%nproc=8
%mem=16000MB
#p B2PLYPD3/Def2QZVP 

methanol

0 1
C  -5.176164  -1.242517   0.918135
O  -3.773500  -1.122876   0.875418
H  -5.539090  -2.204219   0.575535
H  -5.590074  -0.609071   0.363898
H  -5.448176  -1.167203   1.897494
H  -3.510730  -1.221144  -0.316364
