%chk=/home/boittier/MDCM/nms_sampling/methanol_geom.xyz.dir/methanol_2398.chk
%nproc=8
%mem=16000MB
#p B2PLYPD3/Def2QZVP 

methanol

0 1
C  -5.192551  -1.263972   0.919161
O  -3.765517  -1.122080   0.874055
H  -5.574137  -2.125901   0.591611
H  -5.592774  -0.504710   0.365369
H  -5.386949  -1.167313   1.888837
H  -3.458989  -1.172712  -0.313595

