%chk=/home/boittier/MDCM/nms_sampling/methanol_geom.xyz.dir/methanol_1657.chk
%nproc=8
%mem=16000MB
#p B2PLYPD3/Def2QZVP 

methanol

0 1
C  -5.162549  -1.249286   0.908126
O  -3.775247  -1.126721   0.869156
H  -5.482786  -2.219699   0.520108
H  -5.741642  -0.510945   0.394822
H  -5.506552  -1.160766   1.942786
H  -3.479752  -1.178252  -0.116512
