%chk=/home/boittier/MDCM/nms_sampling/methanol_geom.xyz.dir/methanol_1263.chk
%nproc=8
%mem=16000MB
#p B2PLYPD3/Def2QZVP 

methanol

0 1
C  -5.167285  -1.252424   0.903440
O  -3.765877  -1.118389   0.844090
H  -5.500700  -2.301837   0.552218
H  -5.734409  -0.427972   0.331408
H  -5.495293  -1.201439   2.090673
H  -3.575235  -1.232278   0.232079
