%chk=/home/boittier/MDCM/nms_sampling/methanol_geom.xyz.dir/methanol_244.chk
%nproc=8
%mem=16000MB
#p B2PLYPD3/Def2QZVP 

methanol

0 1
C  -5.185247  -1.253733   0.917102
O  -3.761824  -1.125543   0.855667
H  -5.548033  -2.224522   0.563234
H  -5.655896  -0.455102   0.325135
H  -5.493814  -1.177556   1.981746
H  -3.459403  -1.181508  -0.013458

