%chk=/home/boittier/MDCM/nms_sampling/methanol_geom.xyz.dir/methanol_2561.chk
%nproc=8
%mem=16000MB
#p B2PLYPD3/Def2QZVP 

methanol

0 1
C  -5.173755  -1.281874   0.935054
O  -3.767645  -1.124506   0.873048
H  -5.617934  -2.073837   0.556620
H  -5.679507  -0.388662   0.324617
H  -5.462717  -1.142022   1.795781
H  -3.424239  -1.132206  -0.313861

