%chk=/home/boittier/MDCM/nms_sampling/methanol_geom.xyz.dir/methanol_1449.chk
%nproc=8
%mem=16000MB
#p B2PLYPD3/Def2QZVP 

methanol

0 1
C  -5.187994  -1.245702   0.917408
O  -3.766070  -1.125692   0.879016
H  -5.448183  -2.177643   0.554045
H  -5.610814  -0.547973   0.378164
H  -5.514863  -1.170729   1.855137
H  -3.488867  -1.228748  -0.315837

