%chk=/home/boittier/MDCM/nms_sampling/methanol_geom.xyz.dir/methanol_2173.chk
%nproc=8
%mem=16000MB
#p B2PLYPD3/Def2QZVP 

methanol

0 1
C  -5.178469  -1.262664   0.925970
O  -3.773660  -1.118137   0.873616
H  -5.539904  -2.179790   0.580780
H  -5.630288  -0.476636   0.349938
H  -5.380057  -1.175051   1.821131
H  -3.500353  -1.213667  -0.289953

