%chk=/home/boittier/MDCM/nms_sampling/methanol_geom.xyz.dir/methanol_215.chk
%nproc=8
%mem=16000MB
#p B2PLYPD3/Def2QZVP 

methanol

0 1
C  -5.176263  -1.255847   0.909533
O  -3.762945  -1.120896   0.852407
H  -5.475078  -2.266853   0.553666
H  -5.726735  -0.411252   0.333189
H  -5.499196  -1.194964   2.002091
H  -3.543151  -1.213430   0.111268

