%chk=/home/boittier/MDCM/nms_sampling/methanol_geom.xyz.dir/methanol_3581.chk
%nproc=8
%mem=16000MB
#p B2PLYPD3/Def2QZVP 

methanol

0 1
C  -5.190551  -1.248238   0.904131
O  -3.751718  -1.124363   0.902269
H  -5.547972  -2.175612   0.588996
H  -5.800245  -0.602084   0.493470
H  -5.459927  -1.193177   1.742481
H  -3.452601  -1.147307  -0.572618

