%chk=/home/boittier/MDCM/nms_sampling/methanol_geom.xyz.dir/methanol_1811.chk
%nproc=8
%mem=16000MB
#p B2PLYPD3/Def2QZVP 

methanol

0 1
C  -5.172041  -1.253998   0.927683
O  -3.770052  -1.122753   0.839148
H  -5.559019  -2.328014   0.474130
H  -5.742639  -0.398187   0.304089
H  -5.463141  -1.153287   1.996302
H  -3.420472  -1.196804   0.228236
