%chk=/home/boittier/MDCM/nms_sampling/methanol_geom.xyz.dir/methanol_3269.chk
%nproc=8
%mem=16000MB
#p B2PLYPD3/Def2QZVP 

methanol

0 1
C  -5.194810  -1.263127   0.903082
O  -3.774116  -1.126033   0.893388
H  -5.400044  -2.141415   0.639623
H  -5.740774  -0.523217   0.370469
H  -5.373493  -1.083902   1.805079
H  -3.340292  -1.168017  -0.407796
