%chk=/home/boittier/MDCM/nms_sampling/methanol_geom.xyz.dir/methanol_3013.chk
%nproc=8
%mem=16000MB
#p B2PLYPD3/Def2QZVP 

methanol

0 1
C  -5.207255  -1.254278   0.898750
O  -3.749232  -1.111062   0.897363
H  -5.505674  -2.201490   0.641477
H  -5.737586  -0.649041   0.434259
H  -5.361426  -1.136941   1.819814
H  -3.513948  -1.259787  -0.502027

