%chk=/home/boittier/MDCM/nms_sampling/methanol_geom.xyz.dir/methanol_1748.chk
%nproc=8
%mem=16000MB
#p B2PLYPD3/Def2QZVP 

methanol

0 1
C  -5.171885  -1.259044   0.923030
O  -3.764803  -1.119220   0.874565
H  -5.511103  -2.181701   0.578230
H  -5.668407  -0.497116   0.329507
H  -5.528339  -1.154468   1.839257
H  -3.559052  -1.243159  -0.267755
