%chk=/home/boittier/MDCM/nms_sampling/methanol_geom.xyz.dir/methanol_638.chk
%nproc=8
%mem=16000MB
#p B2PLYPD3/Def2QZVP 

methanol

0 1
C  -5.186344  -1.259664   0.907099
O  -3.760440  -1.120477   0.857191
H  -5.496019  -2.216434   0.561364
H  -5.715265  -0.435280   0.342171
H  -5.463496  -1.187890   2.010362
H  -3.491687  -1.208593   0.035216

