%chk=/home/boittier/MDCM/nms_sampling/methanol_geom.xyz.dir/methanol_623.chk
%nproc=8
%mem=16000MB
#p B2PLYPD3/Def2QZVP 

methanol

0 1
C  -5.169689  -1.256766   0.910050
O  -3.771879  -1.120925   0.867931
H  -5.498303  -2.224004   0.571191
H  -5.711212  -0.478668   0.370710
H  -5.469812  -1.154375   1.922425
H  -3.502758  -1.215772  -0.123453

