%chk=/home/boittier/MDCM/nms_sampling/methanol_geom.xyz.dir/methanol_1515.chk
%nproc=8
%mem=16000MB
#p B2PLYPD3/Def2QZVP 

methanol

0 1
C  -5.177447  -1.255520   0.914861
O  -3.769212  -1.125437   0.848598
H  -5.490478  -2.286003   0.567532
H  -5.730559  -0.368368   0.308347
H  -5.481218  -1.177868   1.977463
H  -3.427687  -1.187305   0.148324

