%chk=/home/boittier/MDCM/nms_sampling/methanol_geom.xyz.dir/methanol_2107.chk
%nproc=8
%mem=16000MB
#p B2PLYPD3/Def2QZVP 

methanol

0 1
C  -5.180413  -1.251645   0.912631
O  -3.763751  -1.118688   0.871069
H  -5.490833  -2.265093   0.575622
H  -5.711739  -0.515780   0.371988
H  -5.428316  -1.173659   1.881748
H  -3.559730  -1.209083  -0.169032

