%chk=/home/boittier/MDCM/nms_sampling/methanol_geom.xyz.dir/methanol_1675.chk
%nproc=8
%mem=16000MB
#p B2PLYPD3/Def2QZVP 

methanol

0 1
C  -5.172474  -1.242311   0.921296
O  -3.780215  -1.128408   0.874360
H  -5.518359  -2.192285   0.523473
H  -5.579937  -0.588628   0.391444
H  -5.439453  -1.166041   1.889056
H  -3.482703  -1.170846  -0.303601
