%chk=/home/boittier/MDCM/nms_sampling/methanol_geom.xyz.dir/methanol_2435.chk
%nproc=8
%mem=16000MB
#p B2PLYPD3/Def2QZVP 

methanol

0 1
C  -5.187458  -1.236372   0.917922
O  -3.768425  -1.127890   0.819475
H  -5.471552  -2.367451   0.523694
H  -5.526859  -0.363221   0.284393
H  -5.545794  -1.219529   2.163884
H  -3.487243  -1.248440   0.466773
