%chk=/home/boittier/MDCM/nms_sampling/methanol_geom.xyz.dir/methanol_1348.chk
%nproc=8
%mem=16000MB
#p B2PLYPD3/Def2QZVP 

methanol

0 1
C  -5.166266  -1.245019   0.927346
O  -3.771039  -1.126578   0.865443
H  -5.530863  -2.241344   0.549217
H  -5.661484  -0.488089   0.328632
H  -5.527917  -1.201614   1.861499
H  -3.512965  -1.191416  -0.161189
