%chk=/home/boittier/MDCM/nms_sampling/methanol_geom.xyz.dir/methanol_2271.chk
%nproc=8
%mem=16000MB
#p B2PLYPD3/Def2QZVP 

methanol

0 1
C  -5.193091  -1.253236   0.924207
O  -3.761857  -1.124314   0.872552
H  -5.558755  -2.210261   0.590719
H  -5.640361  -0.485948   0.359731
H  -5.451226  -1.172241   1.825770
H  -3.418236  -1.192178  -0.275174

