%chk=/home/boittier/MDCM/nms_sampling/methanol_geom.xyz.dir/methanol_1174.chk
%nproc=8
%mem=16000MB
#p B2PLYPD3/Def2QZVP 

methanol

0 1
C  -5.179277  -1.253970   0.913450
O  -3.763618  -1.125274   0.870656
H  -5.502964  -2.188850   0.566460
H  -5.700186  -0.494276   0.352462
H  -5.512509  -1.170562   1.911431
H  -3.482371  -1.186920  -0.175665
