%chk=/home/boittier/MDCM/nms_sampling/methanol_geom.xyz.dir/methanol_1691.chk
%nproc=8
%mem=16000MB
#p B2PLYPD3/Def2QZVP 

methanol

0 1
C  -5.180089  -1.262026   0.926898
O  -3.758717  -1.115782   0.849579
H  -5.581066  -2.278603   0.490330
H  -5.717131  -0.429682   0.337791
H  -5.460514  -1.153564   1.950354
H  -3.512860  -1.231037   0.063443
