%chk=/home/boittier/MDCM/nms_sampling/methanol_geom.xyz.dir/methanol_3447.chk
%nproc=8
%mem=16000MB
#p B2PLYPD3/Def2QZVP 

methanol

0 1
C  -5.206875  -1.253617   0.898562
O  -3.757591  -1.129689   0.893489
H  -5.425693  -2.044274   0.616448
H  -5.619002  -0.600765   0.386956
H  -5.535483  -1.127769   1.914161
H  -3.392661  -1.202661  -0.465172
