%chk=/home/boittier/MDCM/nms_sampling/methanol_geom.xyz.dir/methanol_3568.chk
%nproc=8
%mem=16000MB
#p B2PLYPD3/Def2QZVP 

methanol

0 1
C  -5.186890  -1.258708   0.923574
O  -3.770942  -1.129648   0.889562
H  -5.624093  -2.011414   0.647407
H  -5.586387  -0.592476   0.296054
H  -5.412311  -1.188469   1.843409
H  -3.365288  -1.124713  -0.564435

