%chk=/home/boittier/MDCM/nms_sampling/methanol_geom.xyz.dir/methanol_1428.chk
%nproc=8
%mem=16000MB
#p B2PLYPD3/Def2QZVP 

methanol

0 1
C  -5.162634  -1.247331   0.925813
O  -3.776914  -1.124107   0.852725
H  -5.532181  -2.297520   0.472388
H  -5.682999  -0.457698   0.369950
H  -5.495768  -1.162217   1.933043
H  -3.476098  -1.213140   0.028352

