%chk=/home/boittier/MDCM/nms_sampling/methanol_geom.xyz.dir/methanol_1698.chk
%nproc=8
%mem=16000MB
#p B2PLYPD3/Def2QZVP 

methanol

0 1
C  -5.203972  -1.262080   0.916503
O  -3.755888  -1.125032   0.841030
H  -5.493460  -2.270870   0.538692
H  -5.653445  -0.363998   0.310947
H  -5.452347  -1.142388   2.039310
H  -3.433152  -1.172153   0.215070

