%chk=/home/boittier/MDCM/nms_sampling/methanol_geom.xyz.dir/methanol_2865.chk
%nproc=8
%mem=16000MB
#p B2PLYPD3/Def2QZVP 

methanol

0 1
C  -5.217607  -1.277520   0.915975
O  -3.746763  -1.112669   0.888515
H  -5.571459  -1.987627   0.613102
H  -5.608608  -0.549612   0.338056
H  -5.358291  -1.193911   1.878448
H  -3.478733  -1.231385  -0.500989

