%chk=/home/boittier/MDCM/nms_sampling/methanol_geom.xyz.dir/methanol_1814.chk
%nproc=8
%mem=16000MB
#p B2PLYPD3/Def2QZVP 

methanol

0 1
C  -5.184624  -1.265519   0.918977
O  -3.767590  -1.116458   0.872733
H  -5.566638  -2.152523   0.543094
H  -5.640193  -0.546167   0.368897
H  -5.380676  -1.122129   1.912514
H  -3.491576  -1.216824  -0.270820
