%chk=/home/boittier/MDCM/nms_sampling/methanol_geom.xyz.dir/methanol_270.chk
%nproc=8
%mem=16000MB
#p B2PLYPD3/Def2QZVP 

methanol

0 1
C  -5.191598  -1.253848   0.922663
O  -3.761653  -1.123815   0.850369
H  -5.503471  -2.275049   0.542095
H  -5.675010  -0.433721   0.291686
H  -5.449449  -1.164980   1.967645
H  -3.461267  -1.187506   0.076856

