%chk=/home/boittier/MDCM/nms_sampling/methanol_geom.xyz.dir/methanol_961.chk
%nproc=8
%mem=16000MB
#p B2PLYPD3/Def2QZVP 

methanol

0 1
C  -5.183930  -1.256198   0.917611
O  -3.768164  -1.125639   0.869078
H  -5.550611  -2.162588   0.559520
H  -5.643481  -0.503974   0.357161
H  -5.437815  -1.174358   1.922354
H  -3.439866  -1.165223  -0.208345
