%chk=/home/boittier/MDCM/nms_sampling/methanol_geom.xyz.dir/methanol_1024.chk
%nproc=8
%mem=16000MB
#p B2PLYPD3/Def2QZVP 

methanol

0 1
C  -5.173661  -1.256996   0.917956
O  -3.770623  -1.120075   0.848944
H  -5.528957  -2.266914   0.534912
H  -5.660237  -0.443356   0.324306
H  -5.453915  -1.153123   2.008376
H  -3.513605  -1.219003   0.088867

