%chk=/home/boittier/MDCM/nms_sampling/methanol_geom.xyz.dir/methanol_1289.chk
%nproc=8
%mem=16000MB
#p B2PLYPD3/Def2QZVP 

methanol

0 1
C  -5.190360  -1.262952   0.917874
O  -3.751757  -1.116238   0.844608
H  -5.614671  -2.252133   0.490464
H  -5.718723  -0.442537   0.345005
H  -5.419188  -1.186685   2.053549
H  -3.507715  -1.193751   0.137397

