%chk=/home/boittier/MDCM/nms_sampling/methanol_geom.xyz.dir/methanol_2796.chk
%nproc=8
%mem=16000MB
#p B2PLYPD3/Def2QZVP 

methanol

0 1
C  -5.186881  -1.261734   0.929007
O  -3.779067  -1.130057   0.819151
H  -5.495978  -2.365103   0.537681
H  -5.594858  -0.250721   0.253306
H  -5.397112  -1.118488   2.059498
H  -3.374200  -1.137925   0.467620
