%chk=/home/boittier/MDCM/nms_sampling/methanol_geom.xyz.dir/methanol_687.chk
%nproc=8
%mem=16000MB
#p B2PLYPD3/Def2QZVP 

methanol

0 1
C  -5.177154  -1.256972   0.910324
O  -3.770362  -1.119095   0.870184
H  -5.504653  -2.193154   0.557782
H  -5.678736  -0.512161   0.378339
H  -5.425280  -1.170766   1.935467
H  -3.511882  -1.220279  -0.172723

