%chk=/home/boittier/MDCM/nms_sampling/methanol_geom.xyz.dir/methanol_3229.chk
%nproc=8
%mem=16000MB
#p B2PLYPD3/Def2QZVP 

methanol

0 1
C  -5.205834  -1.257797   0.901578
O  -3.747605  -1.118284   0.872123
H  -5.484456  -2.237852   0.591827
H  -5.744918  -0.492778   0.400196
H  -5.409495  -1.177977   1.924297
H  -3.509695  -1.191988  -0.143153
