%chk=/home/boittier/MDCM/nms_sampling/methanol_geom.xyz.dir/methanol_984.chk
%nproc=8
%mem=16000MB
#p B2PLYPD3/Def2QZVP 

methanol

0 1
C  -5.184429  -1.265640   0.921446
O  -3.766467  -1.120959   0.848790
H  -5.508770  -2.237051   0.526879
H  -5.675889  -0.397108   0.304166
H  -5.425470  -1.146426   1.987392
H  -3.482375  -1.189886   0.099443
