%chk=/home/boittier/MDCM/nms_sampling/methanol_geom.xyz.dir/methanol_3005.chk
%nproc=8
%mem=16000MB
#p B2PLYPD3/Def2QZVP 

methanol

0 1
C  -5.215474  -1.280372   0.922037
O  -3.743105  -1.115731   0.847183
H  -5.610832  -2.184735   0.605360
H  -5.551767  -0.426109   0.276812
H  -5.394070  -1.090853   2.033085
H  -3.544443  -1.182215   0.021066

