%chk=/home/boittier/MDCM/nms_sampling/methanol_geom.xyz.dir/methanol_3114.chk
%nproc=8
%mem=16000MB
#p B2PLYPD3/Def2QZVP 

methanol

0 1
C  -5.196491  -1.248644   0.906364
O  -3.750109  -1.120399   0.900718
H  -5.469586  -2.168344   0.590692
H  -5.813863  -0.608226   0.414129
H  -5.450362  -1.201737   1.758935
H  -3.485565  -1.195579  -0.515474

