%chk=/home/boittier/MDCM/nms_sampling/methanol_geom.xyz.dir/methanol_2041.chk
%nproc=8
%mem=16000MB
#p B2PLYPD3/Def2QZVP 

methanol

0 1
C  -5.180328  -1.247175   0.903052
O  -3.759086  -1.124738   0.880529
H  -5.524068  -2.172746   0.565803
H  -5.718209  -0.609532   0.397887
H  -5.523472  -1.154133   1.942360
H  -3.497860  -1.189186  -0.293240

