%chk=/home/boittier/MDCM/nms_sampling/methanol_geom.xyz.dir/methanol_3583.chk
%nproc=8
%mem=16000MB
#p B2PLYPD3/Def2QZVP 

methanol

0 1
C  -5.187811  -1.245923   0.915266
O  -3.752908  -1.124565   0.845622
H  -5.635901  -2.288294   0.458294
H  -5.687305  -0.472931   0.428521
H  -5.506304  -1.202596   2.049791
H  -3.444184  -1.178600   0.105715

