%chk=/home/boittier/MDCM/nms_sampling/methanol_geom.xyz.dir/methanol_1175.chk
%nproc=8
%mem=16000MB
#p B2PLYPD3/Def2QZVP 

methanol

0 1
C  -5.178320  -1.259194   0.917027
O  -3.770592  -1.122237   0.853320
H  -5.507609  -2.213494   0.545593
H  -5.649618  -0.443456   0.310241
H  -5.433372  -1.176910   2.004264
H  -3.507831  -1.190336   0.034330
