%chk=/home/boittier/MDCM/nms_sampling/methanol_geom.xyz.dir/methanol_1804.chk
%nproc=8
%mem=16000MB
#p B2PLYPD3/Def2QZVP 

methanol

0 1
C  -5.192701  -1.259197   0.904792
O  -3.756306  -1.126684   0.848563
H  -5.495163  -2.240090   0.555305
H  -5.715223  -0.393609   0.341601
H  -5.500497  -1.165793   2.059956
H  -3.443621  -1.160515   0.160849
