%chk=/home/boittier/MDCM/nms_sampling/methanol_geom.xyz.dir/methanol_998.chk
%nproc=8
%mem=16000MB
#p B2PLYPD3/Def2QZVP 

methanol

0 1
C  -5.181843  -1.252457   0.909702
O  -3.762323  -1.123189   0.852939
H  -5.487623  -2.278432   0.553087
H  -5.742013  -0.425402   0.333508
H  -5.491806  -1.182682   1.998241
H  -3.469835  -1.202553   0.104688
