%chk=/home/boittier/MDCM/nms_sampling/methanol_geom.xyz.dir/methanol_1730.chk
%nproc=8
%mem=16000MB
#p B2PLYPD3/Def2QZVP 

methanol

0 1
C  -5.187939  -1.245630   0.904263
O  -3.765492  -1.121560   0.862127
H  -5.422024  -2.300086   0.542868
H  -5.694240  -0.495146   0.397245
H  -5.451198  -1.161619   1.968207
H  -3.510539  -1.229489  -0.004210

