%chk=/home/boittier/MDCM/nms_sampling/methanol_geom.xyz.dir/methanol_3040.chk
%nproc=8
%mem=16000MB
#p B2PLYPD3/Def2QZVP 

methanol

0 1
C  -5.164113  -1.259075   0.913810
O  -3.757911  -1.113988   0.826130
H  -5.608457  -2.357422   0.504868
H  -5.699038  -0.403472   0.322105
H  -5.539082  -1.142530   2.152721
H  -3.624769  -1.254173   0.397986

