%chk=/home/boittier/MDCM/nms_sampling/methanol_geom.xyz.dir/methanol_2433.chk
%nproc=8
%mem=16000MB
#p B2PLYPD3/Def2QZVP 

methanol

0 1
C  -5.184290  -1.276283   0.927411
O  -3.767471  -1.114999   0.881629
H  -5.620966  -2.120477   0.602068
H  -5.617095  -0.575785   0.326339
H  -5.334316  -1.057795   1.828218
H  -3.511730  -1.182728  -0.446618
