%chk=/home/boittier/MDCM/nms_sampling/methanol_geom.xyz.dir/methanol_1665.chk
%nproc=8
%mem=16000MB
#p B2PLYPD3/Def2QZVP 

methanol

0 1
C  -5.189376  -1.260286   0.910769
O  -3.765813  -1.122823   0.849654
H  -5.445183  -2.276531   0.553208
H  -5.691875  -0.374516   0.339124
H  -5.455307  -1.144229   1.994805
H  -3.454771  -1.207496   0.145052
