%chk=/home/boittier/MDCM/nms_sampling/methanol_geom.xyz.dir/methanol_1655.chk
%nproc=8
%mem=16000MB
#p B2PLYPD3/Def2QZVP 

methanol

0 1
C  -5.192678  -1.249883   0.908843
O  -3.755332  -1.125281   0.856839
H  -5.497770  -2.257070   0.509811
H  -5.767871  -0.473457   0.357520
H  -5.481217  -1.182031   2.007245
H  -3.430301  -1.173073   0.058742
