%chk=/home/boittier/MDCM/nms_sampling/methanol_geom.xyz.dir/methanol_2947.chk
%nproc=8
%mem=16000MB
#p B2PLYPD3/Def2QZVP 

methanol

0 1
C  -5.175164  -1.245152   0.937630
O  -3.765423  -1.128082   0.847383
H  -5.479971  -2.292084   0.549724
H  -5.640318  -0.386383   0.227635
H  -5.551158  -1.234002   1.893060
H  -3.542684  -1.187771   0.082371
