%chk=/home/boittier/MDCM/nms_sampling/methanol_geom.xyz.dir/methanol_1288.chk
%nproc=8
%mem=16000MB
#p B2PLYPD3/Def2QZVP 

methanol

0 1
C  -5.190643  -1.262052   0.914912
O  -3.758949  -1.119785   0.852328
H  -5.482107  -2.223122   0.529863
H  -5.730592  -0.398293   0.310068
H  -5.454194  -1.195921   1.996833
H  -3.472159  -1.214314   0.099509

