%chk=/home/boittier/MDCM/nms_sampling/methanol_geom.xyz.dir/methanol_2830.chk
%nproc=8
%mem=16000MB
#p B2PLYPD3/Def2QZVP 

methanol

0 1
C  -5.208654  -1.247427   0.935858
O  -3.757901  -1.126556   0.821698
H  -5.506022  -2.376262   0.446791
H  -5.663009  -0.311809   0.264283
H  -5.436219  -1.208977   2.038620
H  -3.345763  -1.193913   0.442961
