%chk=/home/boittier/MDCM/nms_sampling/methanol_geom.xyz.dir/methanol_149.chk
%nproc=8
%mem=16000MB
#p B2PLYPD3/Def2QZVP 

methanol

0 1
C  -5.187759  -1.257625   0.906527
O  -3.758759  -1.124692   0.872690
H  -5.526099  -2.169968   0.581585
H  -5.707221  -0.496899   0.383747
H  -5.488684  -1.165344   1.934405
H  -3.453973  -1.175314  -0.196574
