%chk=/home/boittier/MDCM/nms_sampling/methanol_geom.xyz.dir/methanol_733.chk
%nproc=8
%mem=16000MB
#p B2PLYPD3/Def2QZVP 

methanol

0 1
C  -5.186629  -1.254232   0.921263
O  -3.764034  -1.123733   0.865822
H  -5.543555  -2.235677   0.542431
H  -5.675815  -0.508233   0.354371
H  -5.436527  -1.138009   1.898848
H  -3.455512  -1.174909  -0.153094

