%chk=/home/boittier/MDCM/nms_sampling/methanol_geom.xyz.dir/methanol_1125.chk
%nproc=8
%mem=16000MB
#p B2PLYPD3/Def2QZVP 

methanol

0 1
C  -5.188363  -1.257781   0.917848
O  -3.763176  -1.122807   0.849068
H  -5.527178  -2.257690   0.530772
H  -5.661933  -0.422997   0.334918
H  -5.458841  -1.152670   2.001656
H  -3.453890  -1.198739   0.088940
