%chk=/home/boittier/MDCM/nms_sampling/methanol_geom.xyz.dir/methanol_808.chk
%nproc=8
%mem=16000MB
#p B2PLYPD3/Def2QZVP 

methanol

0 1
C  -5.175319  -1.247903   0.906731
O  -3.767075  -1.124911   0.859897
H  -5.488633  -2.236403   0.572871
H  -5.698291  -0.472884   0.345158
H  -5.523922  -1.192085   1.997401
H  -3.480784  -1.213685  -0.005975

