%chk=/home/boittier/MDCM/nms_sampling/methanol_geom.xyz.dir/methanol_3334.chk
%nproc=8
%mem=16000MB
#p B2PLYPD3/Def2QZVP 

methanol

0 1
C  -5.181738  -1.237548   0.901019
O  -3.770083  -1.130594   0.835952
H  -5.404099  -2.328061   0.450026
H  -5.639402  -0.485977   0.371122
H  -5.534728  -1.135211   2.191059
H  -3.496859  -1.191768   0.350994

