%chk=/home/boittier/MDCM/nms_sampling/methanol_geom.xyz.dir/methanol_1870.chk
%nproc=8
%mem=16000MB
#p B2PLYPD3/Def2QZVP 

methanol

0 1
C  -5.171648  -1.245001   0.926101
O  -3.778051  -1.124826   0.869268
H  -5.511644  -2.241868   0.544122
H  -5.651700  -0.532356   0.334943
H  -5.439297  -1.168700   1.858061
H  -3.462982  -1.200702  -0.207905
