%chk=/home/boittier/MDCM/nms_sampling/methanol_geom.xyz.dir/methanol_506.chk
%nproc=8
%mem=16000MB
#p B2PLYPD3/Def2QZVP 

methanol

0 1
C  -5.175089  -1.257187   0.910919
O  -3.763879  -1.119446   0.856998
H  -5.491040  -2.264049   0.561299
H  -5.727034  -0.433255   0.342058
H  -5.499791  -1.165251   1.968634
H  -3.527777  -1.230385   0.037458

