%chk=/home/boittier/MDCM/nms_sampling/methanol_geom.xyz.dir/methanol_1893.chk
%nproc=8
%mem=16000MB
#p B2PLYPD3/Def2QZVP 

methanol

0 1
C  -5.164064  -1.246248   0.922973
O  -3.779633  -1.124752   0.847072
H  -5.530298  -2.284574   0.465715
H  -5.647062  -0.481806   0.348219
H  -5.473294  -1.157510   2.014345
H  -3.477456  -1.207483   0.097910
