%chk=/home/boittier/MDCM/nms_sampling/methanol_geom.xyz.dir/methanol_148.chk
%nproc=8
%mem=16000MB
#p B2PLYPD3/Def2QZVP 

methanol

0 1
C  -5.174956  -1.260518   0.913276
O  -3.767229  -1.118549   0.853061
H  -5.547058  -2.238460   0.524617
H  -5.739477  -0.452879   0.333674
H  -5.429556  -1.167692   2.016527
H  -3.478461  -1.207254   0.067982

