%chk=/home/boittier/MDCM/nms_sampling/methanol_geom.xyz.dir/methanol_1734.chk
%nproc=8
%mem=16000MB
#p B2PLYPD3/Def2QZVP 

methanol

0 1
C  -5.167904  -1.259651   0.924368
O  -3.765524  -1.118298   0.845729
H  -5.528538  -2.284753   0.536712
H  -5.676798  -0.388550   0.301664
H  -5.533941  -1.161123   1.969345
H  -3.562274  -1.249817   0.127935

