%chk=/home/boittier/MDCM/nms_sampling/methanol_geom.xyz.dir/methanol_459.chk
%nproc=8
%mem=16000MB
#p B2PLYPD3/Def2QZVP 

methanol

0 1
C  -5.180602  -1.250641   0.909062
O  -3.766507  -1.125250   0.852575
H  -5.468819  -2.258215   0.551120
H  -5.669869  -0.465490   0.326696
H  -5.497968  -1.156797   2.035356
H  -3.503274  -1.196210   0.087436

