%chk=/home/boittier/MDCM/nms_sampling/methanol_geom.xyz.dir/methanol_1510.chk
%nproc=8
%mem=16000MB
#p B2PLYPD3/Def2QZVP 

methanol

0 1
C  -5.177318  -1.245358   0.917493
O  -3.766210  -1.125597   0.861220
H  -5.530846  -2.214972   0.510222
H  -5.625339  -0.534894   0.365955
H  -5.538245  -1.165224   1.980439
H  -3.490510  -1.217141  -0.097896

