%chk=/home/boittier/MDCM/nms_sampling/methanol_geom.xyz.dir/methanol_1825.chk
%nproc=8
%mem=16000MB
#p B2PLYPD3/Def2QZVP 

methanol

0 1
C  -5.186766  -1.249392   0.910554
O  -3.767561  -1.123915   0.855925
H  -5.439568  -2.313176   0.537882
H  -5.758504  -0.472046   0.324310
H  -5.404780  -1.147218   1.978182
H  -3.453899  -1.174581   0.089547
