%chk=/home/boittier/MDCM/nms_sampling/methanol_geom.xyz.dir/methanol_2504.chk
%nproc=8
%mem=16000MB
#p B2PLYPD3/Def2QZVP 

methanol

0 1
C  -5.149272  -1.257603   0.900598
O  -3.772003  -1.118784   0.830193
H  -5.504913  -2.340585   0.527545
H  -5.748830  -0.371958   0.329734
H  -5.534698  -1.166927   2.173154
H  -3.626677  -1.220834   0.436461
