%chk=/home/boittier/MDCM/nms_sampling/methanol_geom.xyz.dir/methanol_2202.chk
%nproc=8
%mem=16000MB
#p B2PLYPD3/Def2QZVP 

methanol

0 1
C  -5.170443  -1.247862   0.902604
O  -3.777928  -1.127489   0.849174
H  -5.443029  -2.278537   0.494001
H  -5.705064  -0.473587   0.372187
H  -5.455809  -1.148704   2.089465
H  -3.474685  -1.169514   0.175127

