%chk=/home/boittier/MDCM/nms_sampling/methanol_geom.xyz.dir/methanol_3136.chk
%nproc=8
%mem=16000MB
#p B2PLYPD3/Def2QZVP 

methanol

0 1
C  -5.184998  -1.264703   0.911673
O  -3.755471  -1.120174   0.895538
H  -5.541356  -2.128987   0.558775
H  -5.851095  -0.561646   0.403994
H  -5.462148  -1.124906   1.776154
H  -3.409136  -1.180622  -0.469625
