%chk=/home/boittier/MDCM/nms_sampling/methanol_geom.xyz.dir/methanol_1558.chk
%nproc=8
%mem=16000MB
#p B2PLYPD3/Def2QZVP 

methanol

0 1
C  -5.173644  -1.252667   0.925230
O  -3.775715  -1.128686   0.844499
H  -5.480915  -2.288628   0.532020
H  -5.624989  -0.355340   0.318127
H  -5.482717  -1.188226   1.955465
H  -3.480012  -1.168433   0.141594
