%chk=/home/boittier/MDCM/nms_sampling/methanol_geom.xyz.dir/methanol_1598.chk
%nproc=8
%mem=16000MB
#p B2PLYPD3/Def2QZVP 

methanol

0 1
C  -5.190039  -1.251849   0.910986
O  -3.761758  -1.125098   0.846946
H  -5.411574  -2.302590   0.485026
H  -5.717043  -0.432694   0.338184
H  -5.481218  -1.140698   2.038943
H  -3.496935  -1.187742   0.207874

