%chk=/home/boittier/MDCM/nms_sampling/methanol_geom.xyz.dir/methanol_3018.chk
%nproc=8
%mem=16000MB
#p B2PLYPD3/Def2QZVP 

methanol

0 1
C  -5.194696  -1.246318   0.918443
O  -3.757270  -1.128952   0.842546
H  -5.474997  -2.345294   0.423086
H  -5.848469  -0.387501   0.348940
H  -5.436132  -1.212368   1.999997
H  -3.362279  -1.122910   0.283686

