%chk=/home/boittier/MDCM/nms_sampling/methanol_geom.xyz.dir/methanol_2873.chk
%nproc=8
%mem=16000MB
#p B2PLYPD3/Def2QZVP 

methanol

0 1
C  -5.177097  -1.248300   0.901025
O  -3.758272  -1.124799   0.898352
H  -5.441031  -2.144816   0.646289
H  -5.727192  -0.555230   0.418974
H  -5.642642  -1.159503   1.783221
H  -3.499392  -1.257569  -0.496628
