%chk=/home/boittier/MDCM/nms_sampling/methanol_geom.xyz.dir/methanol_3589.chk
%nproc=8
%mem=16000MB
#p B2PLYPD3/Def2QZVP 

methanol

0 1
C  -5.181062  -1.245454   0.903172
O  -3.759948  -1.127352   0.897732
H  -5.413637  -2.086131   0.653835
H  -5.676913  -0.578457   0.357094
H  -5.579298  -1.239451   1.824360
H  -3.561990  -1.205071  -0.502949

