%chk=/home/boittier/MDCM/nms_sampling/methanol_geom.xyz.dir/methanol_3224.chk
%nproc=8
%mem=16000MB
#p B2PLYPD3/Def2QZVP 

methanol

0 1
C  -5.188204  -1.259907   0.929493
O  -3.763260  -1.117655   0.887163
H  -5.537500  -2.052695   0.627550
H  -5.456790  -0.627809   0.292993
H  -5.508958  -1.126191   1.833661
H  -3.600868  -1.281162  -0.562305

