%chk=/home/boittier/MDCM/nms_sampling/methanol_geom.xyz.dir/methanol_1417.chk
%nproc=8
%mem=16000MB
#p B2PLYPD3/Def2QZVP 

methanol

0 1
C  -5.196581  -1.250887   0.907939
O  -3.759841  -1.123309   0.872098
H  -5.549846  -2.222824   0.584032
H  -5.672360  -0.563302   0.391129
H  -5.427060  -1.125961   1.938162
H  -3.417112  -1.188164  -0.217052

