%chk=/home/boittier/MDCM/nms_sampling/methanol_geom.xyz.dir/methanol_1096.chk
%nproc=8
%mem=16000MB
#p B2PLYPD3/Def2QZVP 

methanol

0 1
C  -5.183652  -1.252431   0.920982
O  -3.761579  -1.124090   0.869703
H  -5.540678  -2.209021   0.529526
H  -5.680428  -0.511339   0.373185
H  -5.485534  -1.167105   1.882815
H  -3.476017  -1.186960  -0.203397

