%chk=/home/boittier/MDCM/nms_sampling/methanol_geom.xyz.dir/methanol_152.chk
%nproc=8
%mem=16000MB
#p B2PLYPD3/Def2QZVP 

methanol

0 1
C  -5.171776  -1.260032   0.916581
O  -3.769862  -1.120807   0.864882
H  -5.540982  -2.197523   0.577532
H  -5.674260  -0.462983   0.342086
H  -5.470549  -1.167208   1.923333
H  -3.501016  -1.210976  -0.129675
