%chk=/home/boittier/MDCM/nms_sampling/methanol_geom.xyz.dir/methanol_828.chk
%nproc=8
%mem=16000MB
#p B2PLYPD3/Def2QZVP 

methanol

0 1
C  -5.178627  -1.248002   0.912553
O  -3.765276  -1.124188   0.860298
H  -5.493103  -2.261270   0.528116
H  -5.710519  -0.492809   0.360140
H  -5.488335  -1.172761   1.966485
H  -3.492507  -1.195922  -0.020371

