%chk=/home/boittier/MDCM/nms_sampling/methanol_geom.xyz.dir/methanol_1160.chk
%nproc=8
%mem=16000MB
#p B2PLYPD3/Def2QZVP 

methanol

0 1
C  -5.181719  -1.254058   0.913960
O  -3.766017  -1.120763   0.868944
H  -5.519298  -2.202316   0.585944
H  -5.628122  -0.518083   0.357182
H  -5.471346  -1.157885   1.925640
H  -3.517920  -1.227408  -0.191675

