%chk=/home/boittier/MDCM/nms_sampling/methanol_geom.xyz.dir/methanol_2792.chk
%nproc=8
%mem=16000MB
#p B2PLYPD3/Def2QZVP 

methanol

0 1
C  -5.162753  -1.256234   0.916420
O  -3.759485  -1.116681   0.890958
H  -5.517746  -2.151280   0.665537
H  -5.708936  -0.506001   0.348283
H  -5.575393  -1.237117   1.746364
H  -3.651376  -1.258099  -0.467400
