%chk=/home/boittier/MDCM/nms_sampling/methanol_geom.xyz.dir/methanol_3485.chk
%nproc=8
%mem=16000MB
#p B2PLYPD3/Def2QZVP 

methanol

0 1
C  -5.189697  -1.276945   0.911682
O  -3.747006  -1.110221   0.886734
H  -5.590783  -2.143034   0.523691
H  -5.847827  -0.517764   0.441374
H  -5.395436  -1.142503   1.818755
H  -3.509328  -1.205073  -0.369888
