%chk=/home/boittier/MDCM/nms_sampling/methanol_geom.xyz.dir/methanol_3312.chk
%nproc=8
%mem=16000MB
#p B2PLYPD3/Def2QZVP 

methanol

0 1
C  -5.190932  -1.262387   0.922482
O  -3.748302  -1.112710   0.875201
H  -5.686079  -2.194474   0.584855
H  -5.691643  -0.556624   0.378745
H  -5.389030  -1.184798   1.854393
H  -3.545366  -1.199297  -0.342174
