%chk=/home/boittier/MDCM/nms_sampling/methanol_geom.xyz.dir/methanol_799.chk
%nproc=8
%mem=16000MB
#p B2PLYPD3/Def2QZVP 

methanol

0 1
C  -5.184565  -1.247810   0.910103
O  -3.764642  -1.123523   0.869892
H  -5.480377  -2.235239   0.568790
H  -5.671188  -0.528079   0.374044
H  -5.464488  -1.170565   1.925161
H  -3.510502  -1.199764  -0.160729
