%chk=/home/boittier/MDCM/nms_sampling/methanol_geom.xyz.dir/methanol_2351.chk
%nproc=8
%mem=16000MB
#p B2PLYPD3/Def2QZVP 

methanol

0 1
C  -5.182249  -1.265579   0.910280
O  -3.768596  -1.118715   0.880201
H  -5.521799  -2.150072   0.649898
H  -5.700647  -0.488846   0.340086
H  -5.395769  -1.163179   1.858337
H  -3.467176  -1.203318  -0.310086
