%chk=/home/boittier/MDCM/nms_sampling/methanol_geom.xyz.dir/methanol_497.chk
%nproc=8
%mem=16000MB
#p B2PLYPD3/Def2QZVP 

methanol

0 1
C  -5.168543  -1.259399   0.915799
O  -3.772070  -1.122381   0.849139
H  -5.513164  -2.237714   0.535789
H  -5.667996  -0.408050   0.328216
H  -5.482984  -1.175040   2.013690
H  -3.523222  -1.201117   0.101031

