%chk=/home/boittier/MDCM/nms_sampling/methanol_geom.xyz.dir/methanol_1705.chk
%nproc=8
%mem=16000MB
#p B2PLYPD3/Def2QZVP 

methanol

0 1
C  -5.159417  -1.254313   0.918723
O  -3.773600  -1.120243   0.865740
H  -5.553615  -2.243352   0.560708
H  -5.693902  -0.478176   0.368310
H  -5.498976  -1.165531   1.889679
H  -3.528203  -1.225695  -0.142903
