%chk=/home/boittier/MDCM/nms_sampling/methanol_geom.xyz.dir/methanol_1603.chk
%nproc=8
%mem=16000MB
#p B2PLYPD3/Def2QZVP 

methanol

0 1
C  -5.161336  -1.245155   0.916812
O  -3.778433  -1.129467   0.882322
H  -5.476031  -2.161629   0.557594
H  -5.690102  -0.527005   0.377209
H  -5.529886  -1.205999   1.828301
H  -3.474686  -1.181293  -0.338047

