%chk=/home/boittier/MDCM/nms_sampling/methanol_geom.xyz.dir/methanol_3558.chk
%nproc=8
%mem=16000MB
#p B2PLYPD3/Def2QZVP 

methanol

0 1
C  -5.171694  -1.235129   0.894778
O  -3.759495  -1.130757   0.887887
H  -5.526231  -2.155418   0.517335
H  -5.681185  -0.652191   0.524506
H  -5.632239  -1.181382   1.944439
H  -3.516558  -1.183940  -0.395731
