%chk=/home/boittier/MDCM/nms_sampling/methanol_geom.xyz.dir/methanol_915.chk
%nproc=8
%mem=16000MB
#p B2PLYPD3/Def2QZVP 

methanol

0 1
C  -5.183359  -1.260722   0.908049
O  -3.766987  -1.123831   0.864412
H  -5.510183  -2.198478   0.583342
H  -5.687166  -0.470128   0.353347
H  -5.441612  -1.140320   1.969855
H  -3.458806  -1.173744  -0.086084

