%chk=/home/boittier/MDCM/nms_sampling/methanol_geom.xyz.dir/methanol_1255.chk
%nproc=8
%mem=16000MB
#p B2PLYPD3/Def2QZVP 

methanol

0 1
C  -5.182896  -1.244687   0.927426
O  -3.760690  -1.125164   0.843130
H  -5.525485  -2.332079   0.475738
H  -5.683732  -0.427990   0.328118
H  -5.498668  -1.199508   1.975309
H  -3.498967  -1.186771   0.162100
