%chk=/home/boittier/MDCM/nms_sampling/methanol_geom.xyz.dir/methanol_1961.chk
%nproc=8
%mem=16000MB
#p B2PLYPD3/Def2QZVP 

methanol

0 1
C  -5.186725  -1.254527   0.915826
O  -3.769116  -1.128380   0.844277
H  -5.448703  -2.308441   0.543314
H  -5.738249  -0.386644   0.275337
H  -5.429070  -1.145680   2.011793
H  -3.409230  -1.141684   0.228135
