%chk=/home/boittier/MDCM/nms_sampling/methanol_geom.xyz.dir/methanol_213.chk
%nproc=8
%mem=16000MB
#p B2PLYPD3/Def2QZVP 

methanol

0 1
C  -5.182016  -1.262284   0.916325
O  -3.766673  -1.121136   0.849913
H  -5.549986  -2.233001   0.545461
H  -5.661387  -0.420539   0.332516
H  -5.420021  -1.168991   2.012003
H  -3.486416  -1.183465   0.070037

