%chk=/home/boittier/MDCM/nms_sampling/methanol_geom.xyz.dir/methanol_1173.chk
%nproc=8
%mem=16000MB
#p B2PLYPD3/Def2QZVP 

methanol

0 1
C  -5.168205  -1.259221   0.917009
O  -3.771545  -1.122298   0.868365
H  -5.527521  -2.166594   0.553507
H  -5.665431  -0.484681   0.352943
H  -5.486821  -1.172427   1.920484
H  -3.520213  -1.201693  -0.177305
