%chk=/home/boittier/MDCM/nms_sampling/methanol_geom.xyz.dir/methanol_1440.chk
%nproc=8
%mem=16000MB
#p B2PLYPD3/Def2QZVP 

methanol

0 1
C  -5.163497  -1.261077   0.924259
O  -3.775340  -1.119879   0.876866
H  -5.531583  -2.151795   0.576991
H  -5.634672  -0.464456   0.368981
H  -5.484543  -1.194058   1.809255
H  -3.542751  -1.231114  -0.326109
