%chk=/home/boittier/MDCM/nms_sampling/methanol_geom.xyz.dir/methanol_3457.chk
%nproc=8
%mem=16000MB
#p B2PLYPD3/Def2QZVP 

methanol

0 1
C  -5.181334  -1.247215   0.899064
O  -3.775631  -1.126992   0.831601
H  -5.504810  -2.365618   0.506007
H  -5.806395  -0.447634   0.308877
H  -5.362995  -1.126200   2.198727
H  -3.320281  -1.143044   0.445088
