%chk=/home/boittier/MDCM/nms_sampling/methanol_geom.xyz.dir/methanol_140.chk
%nproc=8
%mem=16000MB
#p B2PLYPD3/Def2QZVP 

methanol

0 1
C  -5.185780  -1.262601   0.920417
O  -3.758242  -1.121398   0.853914
H  -5.533664  -2.230841   0.539947
H  -5.715619  -0.416313   0.308440
H  -5.478083  -1.163015   1.961514
H  -3.479437  -1.191716   0.036665
