%chk=/home/boittier/MDCM/nms_sampling/methanol_geom.xyz.dir/methanol_2042.chk
%nproc=8
%mem=16000MB
#p B2PLYPD3/Def2QZVP 

methanol

0 1
C  -5.187414  -1.254084   0.920467
O  -3.757865  -1.125924   0.837618
H  -5.565198  -2.280045   0.523839
H  -5.670488  -0.363615   0.314739
H  -5.527121  -1.197116   2.044300
H  -3.429815  -1.190254   0.230326

