%chk=/home/boittier/MDCM/nms_sampling/methanol_geom.xyz.dir/methanol_1281.chk
%nproc=8
%mem=16000MB
#p B2PLYPD3/Def2QZVP 

methanol

0 1
C  -5.183975  -1.250915   0.928017
O  -3.762948  -1.125587   0.846433
H  -5.510030  -2.265680   0.501546
H  -5.688776  -0.386790   0.295735
H  -5.517829  -1.212152   1.958764
H  -3.436652  -1.206398   0.123737
