%chk=/home/boittier/MDCM/nms_sampling/methanol_geom.xyz.dir/methanol_2991.chk
%nproc=8
%mem=16000MB
#p B2PLYPD3/Def2QZVP 

methanol

0 1
C  -5.185114  -1.260309   0.901207
O  -3.768823  -1.131007   0.834402
H  -5.431169  -2.332313   0.587248
H  -5.774769  -0.303291   0.281618
H  -5.449596  -1.130929   2.104487
H  -3.387807  -1.111996   0.420567
