%chk=/home/boittier/MDCM/nms_sampling/methanol_geom.xyz.dir/methanol_839.chk
%nproc=8
%mem=16000MB
#p B2PLYPD3/Def2QZVP 

methanol

0 1
C  -5.187839  -1.260991   0.915246
O  -3.759939  -1.119177   0.852328
H  -5.499025  -2.258242   0.547426
H  -5.732307  -0.425196   0.303450
H  -5.444422  -1.158161   1.989999
H  -3.484074  -1.210403   0.092195
