%chk=/home/boittier/MDCM/nms_sampling/methanol_geom.xyz.dir/methanol_2104.chk
%nproc=8
%mem=16000MB
#p B2PLYPD3/Def2QZVP 

methanol

0 1
C  -5.187232  -1.266065   0.928974
O  -3.769995  -1.123582   0.849016
H  -5.508789  -2.230650   0.523051
H  -5.660194  -0.373549   0.287186
H  -5.385000  -1.162356   1.942616
H  -3.447400  -1.157345   0.073669

