%chk=/home/boittier/MDCM/nms_sampling/methanol_geom.xyz.dir/methanol_1301.chk
%nproc=8
%mem=16000MB
#p B2PLYPD3/Def2QZVP 

methanol

0 1
C  -5.179789  -1.261438   0.920865
O  -3.769563  -1.120794   0.875893
H  -5.514115  -2.166804   0.586997
H  -5.570401  -0.503826   0.379663
H  -5.450565  -1.140082   1.843709
H  -3.564066  -1.209384  -0.326058
