%chk=/home/boittier/MDCM/nms_sampling/methanol_geom.xyz.dir/methanol_3172.chk
%nproc=8
%mem=16000MB
#p B2PLYPD3/Def2QZVP 

methanol

0 1
C  -5.175207  -1.257142   0.914325
O  -3.774527  -1.121366   0.892816
H  -5.389148  -2.176969   0.534680
H  -5.702645  -0.581160   0.410700
H  -5.413586  -1.108670   1.773052
H  -3.573634  -1.189701  -0.435529

