%chk=/home/boittier/MDCM/nms_sampling/methanol_geom.xyz.dir/methanol_3501.chk
%nproc=8
%mem=16000MB
#p B2PLYPD3/Def2QZVP 

methanol

0 1
C  -5.180826  -1.242298   0.938002
O  -3.762395  -1.119594   0.830644
H  -5.502077  -2.428063   0.477639
H  -5.663192  -0.426347   0.242181
H  -5.446699  -1.185950   1.985710
H  -3.598893  -1.215655   0.315422

