%chk=/home/boittier/MDCM/nms_sampling/methanol_geom.xyz.dir/methanol_1462.chk
%nproc=8
%mem=16000MB
#p B2PLYPD3/Def2QZVP 

methanol

0 1
C  -5.163310  -1.263911   0.918368
O  -3.773023  -1.120989   0.873345
H  -5.588578  -2.097752   0.575253
H  -5.636667  -0.502536   0.350336
H  -5.471905  -1.197725   1.914654
H  -3.532637  -1.195108  -0.289271

