%chk=/home/boittier/MDCM/nms_sampling/methanol_geom.xyz.dir/methanol_2426.chk
%nproc=8
%mem=16000MB
#p B2PLYPD3/Def2QZVP 

methanol

0 1
C  -5.144580  -1.248308   0.935425
O  -3.782435  -1.118005   0.886325
H  -5.610774  -2.211022   0.549406
H  -5.648777  -0.590954   0.392290
H  -5.451239  -1.187600   1.712032
H  -3.600629  -1.222881  -0.510118

