%chk=/home/boittier/MDCM/nms_sampling/methanol_geom.xyz.dir/methanol_999.chk
%nproc=8
%mem=16000MB
#p B2PLYPD3/Def2QZVP 

methanol

0 1
C  -5.182478  -1.254760   0.918310
O  -3.765307  -1.123085   0.860358
H  -5.522248  -2.214222   0.552216
H  -5.639730  -0.496512   0.324997
H  -5.482514  -1.145824   1.964601
H  -3.493101  -1.206194  -0.077349

