%chk=/home/boittier/MDCM/nms_sampling/methanol_geom.xyz.dir/methanol_747.chk
%nproc=8
%mem=16000MB
#p B2PLYPD3/Def2QZVP 

methanol

0 1
C  -5.185036  -1.261107   0.918929
O  -3.758102  -1.119565   0.864162
H  -5.568206  -2.222831   0.535331
H  -5.695759  -0.467785   0.382109
H  -5.460088  -1.156325   1.907798
H  -3.497057  -1.198273  -0.127000
