%chk=/home/boittier/MDCM/nms_sampling/methanol_geom.xyz.dir/methanol_1726.chk
%nproc=8
%mem=16000MB
#p B2PLYPD3/Def2QZVP 

methanol

0 1
C  -5.184737  -1.267534   0.913911
O  -3.769558  -1.118217   0.843149
H  -5.476762  -2.253420   0.538534
H  -5.720621  -0.358558   0.289581
H  -5.373086  -1.175111   2.042776
H  -3.469627  -1.202326   0.227712

