%chk=/home/boittier/MDCM/nms_sampling/methanol_geom.xyz.dir/methanol_834.chk
%nproc=8
%mem=16000MB
#p B2PLYPD3/Def2QZVP 

methanol

0 1
C  -5.181789  -1.259712   0.919165
O  -3.767434  -1.125561   0.869560
H  -5.540194  -2.172868   0.563611
H  -5.664583  -0.470351   0.358745
H  -5.458973  -1.159466   1.888368
H  -3.442853  -1.165968  -0.204287
