%chk=/home/boittier/MDCM/nms_sampling/methanol_geom.xyz.dir/methanol_848.chk
%nproc=8
%mem=16000MB
#p B2PLYPD3/Def2QZVP 

methanol

0 1
C  -5.174636  -1.258378   0.909417
O  -3.767938  -1.120233   0.866519
H  -5.508394  -2.187614   0.565860
H  -5.670846  -0.486970   0.368184
H  -5.486377  -1.163514   1.960163
H  -3.519897  -1.227951  -0.124787

