%chk=/home/boittier/MDCM/nms_sampling/methanol_geom.xyz.dir/methanol_2290.chk
%nproc=8
%mem=16000MB
#p B2PLYPD3/Def2QZVP 

methanol

0 1
C  -5.180293  -1.266194   0.925579
O  -3.763466  -1.120409   0.846994
H  -5.570967  -2.281734   0.489050
H  -5.719877  -0.384301   0.351784
H  -5.427523  -1.135532   1.952291
H  -3.471142  -1.171527   0.108071
