%chk=/home/boittier/MDCM/nms_sampling/methanol_geom.xyz.dir/methanol_3528.chk
%nproc=8
%mem=16000MB
#p B2PLYPD3/Def2QZVP 

methanol

0 1
C  -5.197772  -1.261418   0.891931
O  -3.757223  -1.125463   0.841459
H  -5.417795  -2.227652   0.564435
H  -5.685745  -0.351101   0.347950
H  -5.526121  -1.166840   2.163632
H  -3.450218  -1.207923   0.307920
