%chk=/home/boittier/MDCM/nms_sampling/methanol_geom.xyz.dir/methanol_2419.chk
%nproc=8
%mem=16000MB
#p B2PLYPD3/Def2QZVP 

methanol

0 1
C  -5.166500  -1.255451   0.929204
O  -3.757126  -1.116213   0.831325
H  -5.636515  -2.322494   0.446442
H  -5.657977  -0.481876   0.298197
H  -5.525332  -1.135311   2.100787
H  -3.637411  -1.223626   0.262447

