%chk=/home/boittier/MDCM/nms_sampling/methanol_geom.xyz.dir/methanol_1852.chk
%nproc=8
%mem=16000MB
#p B2PLYPD3/Def2QZVP 

methanol

0 1
C  -5.198179  -1.269151   0.920389
O  -3.754851  -1.118991   0.838774
H  -5.551209  -2.288907   0.550653
H  -5.656360  -0.372032   0.296561
H  -5.417181  -1.115151   2.034138
H  -3.493991  -1.184969   0.214330
