%chk=/home/boittier/MDCM/nms_sampling/methanol_geom.xyz.dir/methanol_3464.chk
%nproc=8
%mem=16000MB
#p B2PLYPD3/Def2QZVP 

methanol

0 1
C  -5.145597  -1.245589   0.900296
O  -3.784705  -1.132772   0.831324
H  -5.412231  -2.407936   0.533321
H  -5.802201  -0.326429   0.328079
H  -5.572994  -1.133886   2.108537
H  -3.467740  -1.153282   0.485903
