%chk=/home/boittier/MDCM/nms_sampling/methanol_geom.xyz.dir/methanol_2712.chk
%nproc=8
%mem=16000MB
#p B2PLYPD3/Def2QZVP 

methanol

0 1
C  -5.167406  -1.236274   0.890797
O  -3.786953  -1.128401   0.842160
H  -5.405875  -2.307755   0.514809
H  -5.685485  -0.460695   0.384524
H  -5.444524  -1.212225   2.179475
H  -3.437560  -1.205700   0.305504

