%chk=/home/boittier/MDCM/nms_sampling/methanol_geom.xyz.dir/methanol_2676.chk
%nproc=8
%mem=16000MB
#p B2PLYPD3/Def2QZVP 

methanol

0 1
C  -5.212197  -1.240199   0.919626
O  -3.753173  -1.127155   0.869968
H  -5.563163  -2.206749   0.485938
H  -5.574689  -0.633701   0.414890
H  -5.413661  -1.162684   1.949719
H  -3.440580  -1.157235  -0.261041

