%chk=/home/boittier/MDCM/nms_sampling/methanol_geom.xyz.dir/methanol_1911.chk
%nproc=8
%mem=16000MB
#p B2PLYPD3/Def2QZVP 

methanol

0 1
C  -5.182040  -1.251120   0.911180
O  -3.771877  -1.123501   0.875558
H  -5.473814  -2.204619   0.518500
H  -5.716972  -0.546560   0.400388
H  -5.421145  -1.145525   1.900690
H  -3.430770  -1.196661  -0.219185
