%chk=/home/boittier/MDCM/nms_sampling/methanol_geom.xyz.dir/methanol_620.chk
%nproc=8
%mem=16000MB
#p B2PLYPD3/Def2QZVP 

methanol

0 1
C  -5.182989  -1.252596   0.919714
O  -3.762666  -1.124810   0.855355
H  -5.528755  -2.266908   0.526825
H  -5.713489  -0.458366   0.330104
H  -5.475536  -1.160254   1.955283
H  -3.455391  -1.175948   0.019269

