%chk=/home/boittier/MDCM/nms_sampling/methanol_geom.xyz.dir/methanol_1722.chk
%nproc=8
%mem=16000MB
#p B2PLYPD3/Def2QZVP 

methanol

0 1
C  -5.159120  -1.248542   0.919601
O  -3.777380  -1.125970   0.848852
H  -5.553660  -2.248180   0.560352
H  -5.636365  -0.434274   0.308115
H  -5.530805  -1.201805   2.005032
H  -3.493052  -1.207844   0.065348

