%chk=/home/boittier/MDCM/nms_sampling/methanol_geom.xyz.dir/methanol_304.chk
%nproc=8
%mem=16000MB
#p B2PLYPD3/Def2QZVP 

methanol

0 1
C  -5.183622  -1.256618   0.921556
O  -3.764705  -1.123110   0.866661
H  -5.515500  -2.204983   0.574758
H  -5.654299  -0.476921   0.323211
H  -5.465322  -1.166647   1.890152
H  -3.496267  -1.192997  -0.162519
