%chk=/home/boittier/MDCM/nms_sampling/methanol_geom.xyz.dir/methanol_402.chk
%nproc=8
%mem=16000MB
#p B2PLYPD3/Def2QZVP 

methanol

0 1
C  -5.167471  -1.257799   0.918287
O  -3.771504  -1.120232   0.849647
H  -5.547562  -2.250538   0.502455
H  -5.683943  -0.449407   0.343440
H  -5.460520  -1.164368   2.013600
H  -3.521116  -1.207277   0.080502
