%chk=/home/boittier/MDCM/nms_sampling/methanol_geom.xyz.dir/methanol_1856.chk
%nproc=8
%mem=16000MB
#p B2PLYPD3/Def2QZVP 

methanol

0 1
C  -5.163951  -1.266244   0.905750
O  -3.773388  -1.120798   0.868876
H  -5.515427  -2.141110   0.579484
H  -5.688142  -0.456555   0.375427
H  -5.478272  -1.170952   1.964610
H  -3.535146  -1.200426  -0.145479

