%chk=/home/boittier/MDCM/nms_sampling/methanol_geom.xyz.dir/methanol_2286.chk
%nproc=8
%mem=16000MB
#p B2PLYPD3/Def2QZVP 

methanol

0 1
C  -5.157732  -1.258519   0.911008
O  -3.776176  -1.122718   0.848077
H  -5.504042  -2.221613   0.501221
H  -5.703641  -0.435321   0.332253
H  -5.498585  -1.173834   2.070357
H  -3.541516  -1.196485   0.145281

