%chk=/home/boittier/MDCM/nms_sampling/methanol_geom.xyz.dir/methanol_3479.chk
%nproc=8
%mem=16000MB
#p B2PLYPD3/Def2QZVP 

methanol

0 1
C  -5.193348  -1.265814   0.915714
O  -3.768302  -1.124057   0.844106
H  -5.526106  -2.238728   0.624154
H  -5.640040  -0.381307   0.243845
H  -5.352705  -1.158953   2.040887
H  -3.438671  -1.140239   0.153493
