%chk=/home/boittier/MDCM/nms_sampling/methanol_geom.xyz.dir/methanol_248.chk
%nproc=8
%mem=16000MB
#p B2PLYPD3/Def2QZVP 

methanol

0 1
C  -5.172395  -1.254691   0.909935
O  -3.769109  -1.124970   0.870829
H  -5.492142  -2.183686   0.564497
H  -5.700141  -0.490854   0.368118
H  -5.509610  -1.168468   1.926529
H  -3.488895  -1.193444  -0.165964

