%chk=/home/boittier/MDCM/nms_sampling/methanol_geom.xyz.dir/methanol_956.chk
%nproc=8
%mem=16000MB
#p B2PLYPD3/Def2QZVP 

methanol

0 1
C  -5.177385  -1.256601   0.909097
O  -3.772043  -1.122499   0.869872
H  -5.467858  -2.176358   0.571835
H  -5.668865  -0.498688   0.353098
H  -5.441501  -1.174242   1.946765
H  -3.509548  -1.199900  -0.154015

