%chk=/home/boittier/MDCM/nms_sampling/methanol_geom.xyz.dir/methanol_233.chk
%nproc=8
%mem=16000MB
#p B2PLYPD3/Def2QZVP 

methanol

0 1
C  -5.185633  -1.251064   0.910368
O  -3.764541  -1.124001   0.873860
H  -5.465632  -2.220867   0.558177
H  -5.677537  -0.520157   0.395539
H  -5.474824  -1.149275   1.893610
H  -3.496752  -1.199042  -0.207316
