%chk=/home/boittier/MDCM/nms_sampling/methanol_geom.xyz.dir/methanol_1118.chk
%nproc=8
%mem=16000MB
#p B2PLYPD3/Def2QZVP 

methanol

0 1
C  -5.178198  -1.260145   0.918910
O  -3.769626  -1.120666   0.851769
H  -5.488080  -2.240891   0.529964
H  -5.667529  -0.414695   0.320419
H  -5.457484  -1.162985   1.980277
H  -3.503459  -1.219395   0.068646
