%chk=/home/boittier/MDCM/nms_sampling/methanol_geom.xyz.dir/methanol_759.chk
%nproc=8
%mem=16000MB
#p B2PLYPD3/Def2QZVP 

methanol

0 1
C  -5.178241  -1.262739   0.919851
O  -3.768313  -1.120259   0.869040
H  -5.545948  -2.180455   0.569818
H  -5.685584  -0.457785   0.349860
H  -5.433755  -1.174979   1.879487
H  -3.470299  -1.201906  -0.191712

