%chk=/home/boittier/MDCM/nms_sampling/methanol_geom.xyz.dir/methanol_1791.chk
%nproc=8
%mem=16000MB
#p B2PLYPD3/Def2QZVP 

methanol

0 1
C  -5.194234  -1.255076   0.912440
O  -3.761115  -1.123138   0.846715
H  -5.418718  -2.300755   0.548671
H  -5.730116  -0.397245   0.282632
H  -5.471160  -1.145961   2.016160
H  -3.447893  -1.214070   0.210801
