%chk=/home/boittier/MDCM/nms_sampling/methanol_geom.xyz.dir/methanol_3569.chk
%nproc=8
%mem=16000MB
#p B2PLYPD3/Def2QZVP 

methanol

0 1
C  -5.195398  -1.278041   0.940344
O  -3.765062  -1.118150   0.888577
H  -5.577509  -2.062521   0.591735
H  -5.616235  -0.461350   0.326670
H  -5.325769  -1.180595   1.681648
H  -3.461865  -1.166183  -0.551579

