%chk=/home/boittier/MDCM/nms_sampling/methanol_geom.xyz.dir/methanol_703.chk
%nproc=8
%mem=16000MB
#p B2PLYPD3/Def2QZVP 

methanol

0 1
C  -5.183032  -1.259220   0.921649
O  -3.758440  -1.120364   0.849060
H  -5.557679  -2.285928   0.510647
H  -5.731896  -0.433126   0.325386
H  -5.464562  -1.144934   1.977277
H  -3.486202  -1.190720   0.098444
