%chk=/home/boittier/MDCM/nms_sampling/methanol_geom.xyz.dir/methanol_128.chk
%nproc=8
%mem=16000MB
#p B2PLYPD3/Def2QZVP 

methanol

0 1
C  -5.174915  -1.255818   0.920742
O  -3.768393  -1.123533   0.869188
H  -5.566785  -2.209436   0.560230
H  -5.687721  -0.492892   0.361376
H  -5.478335  -1.148181   1.876829
H  -3.443183  -1.193885  -0.203864
