%chk=/home/boittier/MDCM/nms_sampling/methanol_geom.xyz.dir/methanol_1723.chk
%nproc=8
%mem=16000MB
#p B2PLYPD3/Def2QZVP 

methanol

0 1
C  -5.175958  -1.252608   0.921361
O  -3.762265  -1.119046   0.847528
H  -5.492108  -2.334426   0.505080
H  -5.723539  -0.443468   0.316346
H  -5.478722  -1.154208   1.973585
H  -3.570958  -1.217202   0.145630

