%chk=/home/boittier/MDCM/nms_sampling/methanol_geom.xyz.dir/methanol_3282.chk
%nproc=8
%mem=16000MB
#p B2PLYPD3/Def2QZVP 

methanol

0 1
C  -5.161260  -1.246356   0.923741
O  -3.767200  -1.113775   0.877991
H  -5.656190  -2.185132   0.533018
H  -5.618101  -0.639639   0.408428
H  -5.486747  -1.199779   1.873955
H  -3.601876  -1.276702  -0.403242

