%chk=/home/boittier/MDCM/nms_sampling/methanol_geom.xyz.dir/methanol_246.chk
%nproc=8
%mem=16000MB
#p B2PLYPD3/Def2QZVP 

methanol

0 1
C  -5.175996  -1.260643   0.911247
O  -3.767485  -1.119313   0.852544
H  -5.520271  -2.244541   0.516130
H  -5.740478  -0.435484   0.349878
H  -5.433348  -1.168929   2.018059
H  -3.483389  -1.203967   0.091745

