%chk=/home/boittier/MDCM/nms_sampling/methanol_geom.xyz.dir/methanol_338.chk
%nproc=8
%mem=16000MB
#p B2PLYPD3/Def2QZVP 

methanol

0 1
C  -5.177603  -1.250179   0.917497
O  -3.764837  -1.125029   0.848062
H  -5.544918  -2.280293   0.517345
H  -5.671449  -0.465308   0.335536
H  -5.503691  -1.151869   2.022719
H  -3.482376  -1.188485   0.099975

