%chk=/home/boittier/MDCM/nms_sampling/methanol_geom.xyz.dir/methanol_2090.chk
%nproc=8
%mem=16000MB
#p B2PLYPD3/Def2QZVP 

methanol

0 1
C  -5.183044  -1.268030   0.916841
O  -3.757465  -1.117591   0.848212
H  -5.582960  -2.203295   0.558747
H  -5.722141  -0.409599   0.279262
H  -5.466747  -1.173898   2.036834
H  -3.478212  -1.212891   0.104703

