%chk=/home/boittier/MDCM/nms_sampling/methanol_geom.xyz.dir/methanol_1517.chk
%nproc=8
%mem=16000MB
#p B2PLYPD3/Def2QZVP 

methanol

0 1
C  -5.171929  -1.255061   0.917009
O  -3.766083  -1.117627   0.841875
H  -5.568144  -2.279750   0.553511
H  -5.653390  -0.430244   0.302037
H  -5.475812  -1.194329   2.058044
H  -3.551060  -1.240107   0.169219

