%chk=/home/boittier/MDCM/nms_sampling/methanol_geom.xyz.dir/methanol_1586.chk
%nproc=8
%mem=16000MB
#p B2PLYPD3/Def2QZVP 

methanol

0 1
C  -5.185703  -1.260330   0.903250
O  -3.764362  -1.117931   0.882727
H  -5.550351  -2.162277   0.610763
H  -5.700100  -0.580611   0.400662
H  -5.358827  -1.152280   1.909382
H  -3.508677  -1.179149  -0.343606

