%chk=/home/boittier/MDCM/nms_sampling/methanol_geom.xyz.dir/methanol_3318.chk
%nproc=8
%mem=16000MB
#p B2PLYPD3/Def2QZVP 

methanol

0 1
C  -5.168486  -1.251431   0.902268
O  -3.769765  -1.116165   0.837559
H  -5.380583  -2.460957   0.528847
H  -5.777630  -0.401080   0.347438
H  -5.439406  -1.108329   2.057407
H  -3.641976  -1.232491   0.397962
