%chk=/home/boittier/MDCM/nms_sampling/methanol_geom.xyz.dir/methanol_1976.chk
%nproc=8
%mem=16000MB
#p B2PLYPD3/Def2QZVP 

methanol

0 1
C  -5.178881  -1.245143   0.922570
O  -3.767198  -1.126286   0.840268
H  -5.512692  -2.331910   0.535258
H  -5.667026  -0.397091   0.296261
H  -5.518633  -1.186194   2.004009
H  -3.451367  -1.209426   0.210584

