%chk=/home/boittier/MDCM/nms_sampling/methanol_geom.xyz.dir/methanol_160.chk
%nproc=8
%mem=16000MB
#p B2PLYPD3/Def2QZVP 

methanol

0 1
C  -5.177767  -1.260214   0.909914
O  -3.767221  -1.122840   0.871967
H  -5.514600  -2.186134   0.595536
H  -5.728986  -0.474259   0.353336
H  -5.450408  -1.165461   1.906168
H  -3.464202  -1.179248  -0.178869

