%chk=/home/boittier/MDCM/nms_sampling/methanol_geom.xyz.dir/methanol_2548.chk
%nproc=8
%mem=16000MB
#p B2PLYPD3/Def2QZVP 

methanol

0 1
C  -5.187533  -1.275254   0.911852
O  -3.769893  -1.123211   0.898378
H  -5.445550  -2.084209   0.644946
H  -5.757942  -0.519203   0.333396
H  -5.355987  -1.093401   1.751695
H  -3.439729  -1.127683  -0.508383

