%chk=/home/boittier/MDCM/nms_sampling/methanol_geom.xyz.dir/methanol_3405.chk
%nproc=8
%mem=16000MB
#p B2PLYPD3/Def2QZVP 

methanol

0 1
C  -5.185323  -1.233413   0.903805
O  -3.767528  -1.132336   0.891325
H  -5.334566  -2.184563   0.642251
H  -5.665919  -0.601612   0.333098
H  -5.555381  -1.186829   1.839561
H  -3.514329  -1.191711  -0.384896
