%chk=/home/boittier/MDCM/nms_sampling/methanol_geom.xyz.dir/methanol_420.chk
%nproc=8
%mem=16000MB
#p B2PLYPD3/Def2QZVP 

methanol

0 1
C  -5.187838  -1.249688   0.913490
O  -3.760846  -1.123755   0.863954
H  -5.517319  -2.239953   0.547797
H  -5.703893  -0.514724   0.349485
H  -5.461047  -1.168007   1.952808
H  -3.465898  -1.186942  -0.086961

