%chk=/home/boittier/MDCM/nms_sampling/methanol_geom.xyz.dir/methanol_2716.chk
%nproc=8
%mem=16000MB
#p B2PLYPD3/Def2QZVP 

methanol

0 1
C  -5.149252  -1.237645   0.913083
O  -3.785310  -1.131598   0.846430
H  -5.398379  -2.295459   0.537093
H  -5.791207  -0.373251   0.258814
H  -5.593870  -1.247592   2.009635
H  -3.417668  -1.215874   0.249196
