%chk=/home/boittier/MDCM/nms_sampling/methanol_geom.xyz.dir/methanol_2397.chk
%nproc=8
%mem=16000MB
#p B2PLYPD3/Def2QZVP 

methanol

0 1
C  -5.172242  -1.256439   0.906116
O  -3.763091  -1.118778   0.873865
H  -5.520176  -2.164234   0.532033
H  -5.735887  -0.535891   0.398586
H  -5.474782  -1.201644   1.952701
H  -3.559303  -1.209368  -0.197145
