%chk=/home/boittier/MDCM/nms_sampling/methanol_geom.xyz.dir/methanol_34.chk
%nproc=8
%mem=16000MB
#p B2PLYPD3/Def2QZVP 

methanol

0 1
C  -5.169055  -1.257124   0.918710
O  -3.771484  -1.123872   0.848609
H  -5.518991  -2.236913   0.513960
H  -5.671331  -0.423830   0.321780
H  -5.492621  -1.172065   2.015079
H  -3.508210  -1.192272   0.101110

