%chk=/home/boittier/MDCM/nms_sampling/methanol_geom.xyz.dir/methanol_1176.chk
%nproc=8
%mem=16000MB
#p B2PLYPD3/Def2QZVP 

methanol

0 1
C  -5.176768  -1.258684   0.906427
O  -3.769402  -1.120283   0.872028
H  -5.498592  -2.166165   0.594462
H  -5.675412  -0.500877   0.364340
H  -5.456893  -1.172764   1.944841
H  -3.506359  -1.221026  -0.189079

