%chk=/home/boittier/MDCM/nms_sampling/methanol_geom.xyz.dir/methanol_1651.chk
%nproc=8
%mem=16000MB
#p B2PLYPD3/Def2QZVP 

methanol

0 1
C  -5.178973  -1.264504   0.906030
O  -3.761032  -1.120838   0.851451
H  -5.528408  -2.210757   0.562979
H  -5.745230  -0.396621   0.328718
H  -5.470833  -1.196423   2.047100
H  -3.493986  -1.185911   0.116473
