%chk=/home/boittier/MDCM/nms_sampling/methanol_geom.xyz.dir/methanol_294.chk
%nproc=8
%mem=16000MB
#p B2PLYPD3/Def2QZVP 

methanol

0 1
C  -5.176665  -1.259020   0.913725
O  -3.765674  -1.118818   0.855145
H  -5.509643  -2.260115   0.515736
H  -5.764247  -0.435139   0.346774
H  -5.440373  -1.173625   1.977224
H  -3.485187  -1.210515   0.065472

