%chk=/home/boittier/MDCM/nms_sampling/methanol_geom.xyz.dir/methanol_1264.chk
%nproc=8
%mem=16000MB
#p B2PLYPD3/Def2QZVP 

methanol

0 1
C  -5.189382  -1.264145   0.924103
O  -3.759518  -1.119683   0.867449
H  -5.551405  -2.208497   0.547943
H  -5.687181  -0.504279   0.328525
H  -5.415916  -1.114527   1.885497
H  -3.495228  -1.179256  -0.180283
