%chk=/home/boittier/MDCM/nms_sampling/methanol_geom.xyz.dir/methanol_2196.chk
%nproc=8
%mem=16000MB
#p B2PLYPD3/Def2QZVP 

methanol

0 1
C  -5.185071  -1.256679   0.900602
O  -3.770439  -1.128989   0.873142
H  -5.497740  -2.155279   0.633652
H  -5.689106  -0.503544   0.348639
H  -5.432401  -1.153954   1.968359
H  -3.401668  -1.136594  -0.186032
