%chk=/home/boittier/MDCM/nms_sampling/methanol_geom.xyz.dir/methanol_649.chk
%nproc=8
%mem=16000MB
#p B2PLYPD3/Def2QZVP 

methanol

0 1
C  -5.181724  -1.252269   0.912876
O  -3.769695  -1.123720   0.873854
H  -5.496829  -2.207622   0.566219
H  -5.712065  -0.529727   0.358211
H  -5.428253  -1.154624   1.895898
H  -3.441766  -1.186822  -0.211164

