%chk=/home/boittier/MDCM/nms_sampling/methanol_geom.xyz.dir/methanol_2610.chk
%nproc=8
%mem=16000MB
#p B2PLYPD3/Def2QZVP 

methanol

0 1
C  -5.141338  -1.251431   0.923762
O  -3.786738  -1.121859   0.822745
H  -5.518411  -2.425724   0.463433
H  -5.682864  -0.363960   0.314929
H  -5.473789  -1.132306   2.083175
H  -3.603734  -1.195522   0.457080
