%chk=/home/boittier/MDCM/nms_sampling/methanol_geom.xyz.dir/methanol_305.chk
%nproc=8
%mem=16000MB
#p B2PLYPD3/Def2QZVP 

methanol

0 1
C  -5.176190  -1.250977   0.916199
O  -3.766299  -1.122861   0.863507
H  -5.552837  -2.233984   0.545196
H  -5.654278  -0.516641   0.372813
H  -5.486815  -1.155145   1.945161
H  -3.502976  -1.203381  -0.123773
