%chk=/home/boittier/MDCM/nms_sampling/methanol_geom.xyz.dir/methanol_1776.chk
%nproc=8
%mem=16000MB
#p B2PLYPD3/Def2QZVP 

methanol

0 1
C  -5.161541  -1.246579   0.913542
O  -3.780407  -1.126820   0.859348
H  -5.435713  -2.256787   0.491975
H  -5.722444  -0.457554   0.368034
H  -5.513125  -1.175862   1.956945
H  -3.469788  -1.207902   0.021304
