%chk=/home/boittier/MDCM/nms_sampling/methanol_geom.xyz.dir/methanol_2133.chk
%nproc=8
%mem=16000MB
#p B2PLYPD3/Def2QZVP 

methanol

0 1
C  -5.179603  -1.251205   0.920049
O  -3.772755  -1.126589   0.869173
H  -5.554890  -2.190750   0.513096
H  -5.629772  -0.564533   0.380336
H  -5.424978  -1.132645   1.928332
H  -3.445326  -1.157445  -0.222833

