%chk=/home/boittier/MDCM/nms_sampling/methanol_geom.xyz.dir/methanol_3497.chk
%nproc=8
%mem=16000MB
#p B2PLYPD3/Def2QZVP 

methanol

0 1
C  -5.152452  -1.263382   0.929849
O  -3.785127  -1.125140   0.878929
H  -5.517923  -2.168634   0.661126
H  -5.563173  -0.453512   0.314966
H  -5.501900  -1.126482   1.748380
H  -3.580977  -1.185979  -0.391785

