%chk=/home/boittier/MDCM/nms_sampling/methanol_geom.xyz.dir/methanol_731.chk
%nproc=8
%mem=16000MB
#p B2PLYPD3/Def2QZVP 

methanol

0 1
C  -5.190210  -1.259529   0.907042
O  -3.759499  -1.119155   0.859220
H  -5.514947  -2.238110   0.568377
H  -5.710601  -0.471554   0.352340
H  -5.438472  -1.145686   1.999630
H  -3.477390  -1.212541  -0.003321
