%chk=/home/boittier/MDCM/nms_sampling/methanol_geom.xyz.dir/methanol_1950.chk
%nproc=8
%mem=16000MB
#p B2PLYPD3/Def2QZVP 

methanol

0 1
C  -5.185182  -1.254351   0.906155
O  -3.757617  -1.121997   0.856913
H  -5.530176  -2.240916   0.523164
H  -5.759618  -0.509391   0.348059
H  -5.494497  -1.132577   2.045306
H  -3.446651  -1.202489   0.045290
