%chk=/home/boittier/MDCM/nms_sampling/methanol_geom.xyz.dir/methanol_1379.chk
%nproc=8
%mem=16000MB
#p B2PLYPD3/Def2QZVP 

methanol

0 1
C  -5.204009  -1.260690   0.926473
O  -3.755426  -1.125213   0.843084
H  -5.495055  -2.292621   0.519228
H  -5.649707  -0.358613   0.309608
H  -5.447566  -1.145515   1.962801
H  -3.447493  -1.165281   0.163322
