%chk=/home/boittier/MDCM/nms_sampling/methanol_geom.xyz.dir/methanol_1021.chk
%nproc=8
%mem=16000MB
#p B2PLYPD3/Def2QZVP 

methanol

0 1
C  -5.186303  -1.259507   0.907441
O  -3.762199  -1.120414   0.850801
H  -5.516376  -2.275342   0.543127
H  -5.715755  -0.456169   0.348445
H  -5.425613  -1.127979   2.043056
H  -3.486599  -1.188326   0.114931
