%chk=/home/boittier/MDCM/nms_sampling/methanol_geom.xyz.dir/methanol_863.chk
%nproc=8
%mem=16000MB
#p B2PLYPD3/Def2QZVP 

methanol

0 1
C  -5.189451  -1.254301   0.916126
O  -3.763065  -1.124614   0.849324
H  -5.494103  -2.250230   0.542222
H  -5.663098  -0.444420   0.299475
H  -5.476074  -1.153937   2.024793
H  -3.457758  -1.195956   0.103853

