%chk=/home/boittier/MDCM/nms_sampling/methanol_geom.xyz.dir/methanol_2491.chk
%nproc=8
%mem=16000MB
#p B2PLYPD3/Def2QZVP 

methanol

0 1
C  -5.150025  -1.238762   0.888727
O  -3.788226  -1.127104   0.898867
H  -5.495414  -2.146613   0.573418
H  -5.701194  -0.659052   0.540511
H  -5.513190  -1.155532   1.884645
H  -3.447802  -1.219168  -0.513673
