%chk=/home/boittier/MDCM/nms_sampling/methanol_geom.xyz.dir/methanol_2302.chk
%nproc=8
%mem=16000MB
#p B2PLYPD3/Def2QZVP 

methanol

0 1
C  -5.180200  -1.254448   0.899876
O  -3.766750  -1.117173   0.871300
H  -5.480922  -2.228937   0.575822
H  -5.684789  -0.560792   0.401553
H  -5.441447  -1.119395   1.979211
H  -3.541652  -1.244478  -0.153294
