%chk=/home/boittier/MDCM/nms_sampling/methanol_geom.xyz.dir/methanol_1760.chk
%nproc=8
%mem=16000MB
#p B2PLYPD3/Def2QZVP 

methanol

0 1
C  -5.159789  -1.254873   0.920308
O  -3.773256  -1.120287   0.852284
H  -5.579591  -2.226229   0.522613
H  -5.678468  -0.484719   0.312859
H  -5.467743  -1.192220   2.013154
H  -3.548094  -1.202220   0.022809

