%chk=/home/boittier/MDCM/nms_sampling/methanol_geom.xyz.dir/methanol_702.chk
%nproc=8
%mem=16000MB
#p B2PLYPD3/Def2QZVP 

methanol

0 1
C  -5.169359  -1.248881   0.914531
O  -3.771982  -1.123680   0.870608
H  -5.540385  -2.187311   0.560170
H  -5.664143  -0.538255   0.362068
H  -5.496219  -1.182054   1.929009
H  -3.484001  -1.213471  -0.209674
