%chk=/home/boittier/MDCM/nms_sampling/methanol_geom.xyz.dir/methanol_1548.chk
%nproc=8
%mem=16000MB
#p B2PLYPD3/Def2QZVP 

methanol

0 1
C  -5.171040  -1.250099   0.910511
O  -3.775845  -1.125796   0.846786
H  -5.443655  -2.247651   0.533465
H  -5.659356  -0.437213   0.300507
H  -5.476670  -1.195453   2.071181
H  -3.520429  -1.193386   0.171475
