%chk=/home/boittier/MDCM/nms_sampling/methanol_geom.xyz.dir/methanol_2851.chk
%nproc=8
%mem=16000MB
#p B2PLYPD3/Def2QZVP 

methanol

0 1
C  -5.189109  -1.282355   0.920317
O  -3.746932  -1.114377   0.841092
H  -5.535848  -2.236608   0.536965
H  -5.752802  -0.246888   0.314115
H  -5.527609  -1.167933   1.978769
H  -3.522807  -1.238812   0.231573

