%chk=/home/boittier/MDCM/nms_sampling/methanol_geom.xyz.dir/methanol_711.chk
%nproc=8
%mem=16000MB
#p B2PLYPD3/Def2QZVP 

methanol

0 1
C  -5.180127  -1.249005   0.920980
O  -3.764980  -1.126244   0.865052
H  -5.508153  -2.217933   0.542856
H  -5.647397  -0.476994   0.354941
H  -5.515023  -1.194582   1.899654
H  -3.496480  -1.191974  -0.138648
