%chk=/home/boittier/MDCM/nms_sampling/methanol_geom.xyz.dir/methanol_1983.chk
%nproc=8
%mem=16000MB
#p B2PLYPD3/Def2QZVP 

methanol

0 1
C  -5.186309  -1.253809   0.922930
O  -3.762620  -1.119567   0.863966
H  -5.490841  -2.209793   0.585296
H  -5.617317  -0.488735   0.288867
H  -5.476568  -1.187268   1.911415
H  -3.550963  -1.242226  -0.133322

