%chk=/home/boittier/MDCM/nms_sampling/methanol_geom.xyz.dir/methanol_13.chk
%nproc=8
%mem=16000MB
#p B2PLYPD3/Def2QZVP 

methanol

0 1
C  -5.192886  -1.258482   0.915533
O  -3.760074  -1.123394   0.848258
H  -5.530295  -2.254899   0.541293
H  -5.653182  -0.430600   0.331126
H  -5.452289  -1.146268   2.023990
H  -3.462253  -1.183334   0.099825
