%chk=/home/boittier/MDCM/nms_sampling/methanol_geom.xyz.dir/methanol_1667.chk
%nproc=8
%mem=16000MB
#p B2PLYPD3/Def2QZVP 

methanol

0 1
C  -5.165329  -1.265819   0.911998
O  -3.771917  -1.119696   0.879175
H  -5.491296  -2.107807   0.566446
H  -5.712440  -0.479002   0.365907
H  -5.503285  -1.174771   1.880465
H  -3.517961  -1.230162  -0.281048

