%chk=/home/boittier/MDCM/nms_sampling/methanol_geom.xyz.dir/methanol_3327.chk
%nproc=8
%mem=16000MB
#p B2PLYPD3/Def2QZVP 

methanol

0 1
C  -5.177993  -1.258601   0.922513
O  -3.751524  -1.113827   0.890376
H  -5.663548  -2.094833   0.569684
H  -5.619493  -0.695476   0.376321
H  -5.499261  -1.136330   1.851436
H  -3.630737  -1.236941  -0.576417
