%chk=/home/boittier/MDCM/nms_sampling/methanol_geom.xyz.dir/methanol_1274.chk
%nproc=8
%mem=16000MB
#p B2PLYPD3/Def2QZVP 

methanol

0 1
C  -5.164367  -1.256137   0.905866
O  -3.769463  -1.119792   0.853377
H  -5.477162  -2.294685   0.544382
H  -5.779236  -0.424588   0.352188
H  -5.501362  -1.155456   2.003709
H  -3.525005  -1.224547   0.127643

