%chk=/home/boittier/MDCM/nms_sampling/methanol_geom.xyz.dir/methanol_3261.chk
%nproc=8
%mem=16000MB
#p B2PLYPD3/Def2QZVP 

methanol

0 1
C  -5.157078  -1.245859   0.926731
O  -3.780608  -1.131364   0.880885
H  -5.512721  -2.145450   0.586973
H  -5.633675  -0.442947   0.373123
H  -5.594974  -1.248010   1.755464
H  -3.438163  -1.206336  -0.379351
