%chk=/home/boittier/MDCM/nms_sampling/methanol_geom.xyz.dir/methanol_382.chk
%nproc=8
%mem=16000MB
#p B2PLYPD3/Def2QZVP 

methanol

0 1
C  -5.176954  -1.254440   0.918338
O  -3.768030  -1.125346   0.848980
H  -5.527459  -2.275272   0.537750
H  -5.713671  -0.407879   0.318521
H  -5.474580  -1.172752   1.984615
H  -3.440013  -1.176773   0.111848
