%chk=/home/boittier/MDCM/nms_sampling/methanol_geom.xyz.dir/methanol_1597.chk
%nproc=8
%mem=16000MB
#p B2PLYPD3/Def2QZVP 

methanol

0 1
C  -5.170040  -1.268514   0.922436
O  -3.768690  -1.117898   0.837788
H  -5.596184  -2.242097   0.515442
H  -5.699250  -0.385908   0.277897
H  -5.450010  -1.147794   2.068090
H  -3.479228  -1.211451   0.222535

