%chk=/home/boittier/MDCM/nms_sampling/methanol_geom.xyz.dir/methanol_3322.chk
%nproc=8
%mem=16000MB
#p B2PLYPD3/Def2QZVP 

methanol

0 1
C  -5.199687  -1.256768   0.927169
O  -3.764258  -1.125235   0.877150
H  -5.580385  -2.043815   0.566756
H  -5.512323  -0.554835   0.331052
H  -5.451183  -1.199222   1.896905
H  -3.404948  -1.208228  -0.412161

