%chk=/home/boittier/MDCM/nms_sampling/methanol_geom.xyz.dir/methanol_2232.chk
%nproc=8
%mem=16000MB
#p B2PLYPD3/Def2QZVP 

methanol

0 1
C  -5.182381  -1.251735   0.903307
O  -3.772257  -1.125168   0.879217
H  -5.485717  -2.138268   0.597568
H  -5.634580  -0.539577   0.400535
H  -5.454577  -1.182950   1.930595
H  -3.452108  -1.202524  -0.295165
