%chk=/home/boittier/MDCM/nms_sampling/methanol_geom.xyz.dir/methanol_1086.chk
%nproc=8
%mem=16000MB
#p B2PLYPD3/Def2QZVP 

methanol

0 1
C  -5.180477  -1.255329   0.921049
O  -3.765319  -1.124032   0.854829
H  -5.546322  -2.259185   0.512607
H  -5.705767  -0.458658   0.341455
H  -5.461621  -1.146276   1.957407
H  -3.446889  -1.177277   0.012667

