%chk=/home/boittier/MDCM/nms_sampling/methanol_geom.xyz.dir/methanol_170.chk
%nproc=8
%mem=16000MB
#p B2PLYPD3/Def2QZVP 

methanol

0 1
C  -5.174610  -1.256365   0.914723
O  -3.772214  -1.121446   0.870180
H  -5.521720  -2.177106   0.580377
H  -5.626255  -0.497361   0.366457
H  -5.462560  -1.173591   1.913725
H  -3.507491  -1.220813  -0.212389
