%chk=/home/boittier/MDCM/nms_sampling/methanol_geom.xyz.dir/methanol_1769.chk
%nproc=8
%mem=16000MB
#p B2PLYPD3/Def2QZVP 

methanol

0 1
C  -5.169878  -1.258562   0.916562
O  -3.764031  -1.117674   0.874753
H  -5.548828  -2.133621   0.582566
H  -5.656438  -0.536847   0.333086
H  -5.534084  -1.177738   1.912146
H  -3.562993  -1.258343  -0.278992
