%chk=/home/boittier/MDCM/nms_sampling/methanol_geom.xyz.dir/methanol_1171.chk
%nproc=8
%mem=16000MB
#p B2PLYPD3/Def2QZVP 

methanol

0 1
C  -5.179843  -1.248446   0.915082
O  -3.764022  -1.124513   0.850932
H  -5.471070  -2.292931   0.527237
H  -5.716977  -0.439498   0.321088
H  -5.507037  -1.179104   1.992247
H  -3.493612  -1.202470   0.117597
