%chk=/home/boittier/MDCM/nms_sampling/methanol_geom.xyz.dir/methanol_2077.chk
%nproc=8
%mem=16000MB
#p B2PLYPD3/Def2QZVP 

methanol

0 1
C  -5.186829  -1.257430   0.906827
O  -3.755124  -1.117381   0.856648
H  -5.566994  -2.237737   0.533584
H  -5.730676  -0.462908   0.392121
H  -5.457318  -1.199240   2.017012
H  -3.493973  -1.221154   0.018965
