%chk=/home/boittier/MDCM/nms_sampling/methanol_geom.xyz.dir/methanol_889.chk
%nproc=8
%mem=16000MB
#p B2PLYPD3/Def2QZVP 

methanol

0 1
C  -5.182750  -1.255998   0.912590
O  -3.765329  -1.120363   0.854240
H  -5.477440  -2.285655   0.545616
H  -5.697919  -0.454569   0.337981
H  -5.446205  -1.137475   1.984912
H  -3.515222  -1.210887   0.065544

