%chk=/home/boittier/MDCM/nms_sampling/methanol_geom.xyz.dir/methanol_207.chk
%nproc=8
%mem=16000MB
#p B2PLYPD3/Def2QZVP 

methanol

0 1
C  -5.177977  -1.255613   0.917765
O  -3.766418  -1.120102   0.848618
H  -5.504301  -2.307980   0.527234
H  -5.680420  -0.439032   0.335767
H  -5.451897  -1.141570   1.988882
H  -3.538206  -1.208686   0.113677

