%chk=/home/boittier/MDCM/nms_sampling/methanol_geom.xyz.dir/methanol_2488.chk
%nproc=8
%mem=16000MB
#p B2PLYPD3/Def2QZVP 

methanol

0 1
C  -5.187452  -1.270268   0.920675
O  -3.745251  -1.109254   0.870402
H  -5.689646  -2.168160   0.524179
H  -5.768445  -0.569673   0.355268
H  -5.432276  -1.126339   1.930553
H  -3.512294  -1.236320  -0.239690
