%chk=/home/boittier/MDCM/nms_sampling/methanol_geom.xyz.dir/methanol_3384.chk
%nproc=8
%mem=16000MB
#p B2PLYPD3/Def2QZVP 

methanol

0 1
C  -5.189338  -1.238321   0.896042
O  -3.758630  -1.130987   0.889766
H  -5.478633  -2.116596   0.628567
H  -5.605581  -0.604066   0.439138
H  -5.578095  -1.222217   1.915695
H  -3.498066  -1.189328  -0.436775
