%chk=/home/boittier/MDCM/nms_sampling/methanol_geom.xyz.dir/methanol_1706.chk
%nproc=8
%mem=16000MB
#p B2PLYPD3/Def2QZVP 

methanol

0 1
C  -5.193504  -1.251544   0.916596
O  -3.759607  -1.123783   0.871510
H  -5.594122  -2.207161   0.560638
H  -5.619615  -0.578159   0.394231
H  -5.444642  -1.119497   1.918341
H  -3.446467  -1.181299  -0.269729
