%chk=/home/boittier/MDCM/nms_sampling/methanol_geom.xyz.dir/methanol_2080.chk
%nproc=8
%mem=16000MB
#p B2PLYPD3/Def2QZVP 

methanol

0 1
C  -5.167292  -1.259891   0.909609
O  -3.769627  -1.118546   0.876468
H  -5.555063  -2.189910   0.596380
H  -5.748822  -0.514410   0.373000
H  -5.428448  -1.174389   1.887012
H  -3.512695  -1.195319  -0.250104

