%chk=/home/boittier/MDCM/nms_sampling/methanol_geom.xyz.dir/methanol_2785.chk
%nproc=8
%mem=16000MB
#p B2PLYPD3/Def2QZVP 

methanol

0 1
C  -5.165115  -1.272609   0.904389
O  -3.768741  -1.112550   0.843201
H  -5.493674  -2.278001   0.474531
H  -5.924150  -0.334393   0.340515
H  -5.382935  -1.196190   2.065451
H  -3.480599  -1.212750   0.329019

