%chk=/home/boittier/MDCM/nms_sampling/methanol_geom.xyz.dir/methanol_2545.chk
%nproc=8
%mem=16000MB
#p B2PLYPD3/Def2QZVP 

methanol

0 1
C  -5.155665  -1.247909   0.891007
O  -3.782783  -1.129765   0.897017
H  -5.496083  -2.018007   0.650244
H  -5.674721  -0.547723   0.441966
H  -5.573392  -1.261068   1.899544
H  -3.417064  -1.216635  -0.504691

