%chk=/home/boittier/MDCM/nms_sampling/methanol_geom.xyz.dir/methanol_2065.chk
%nproc=8
%mem=16000MB
#p B2PLYPD3/Def2QZVP 

methanol

0 1
C  -5.170428  -1.246294   0.900549
O  -3.779944  -1.128859   0.872081
H  -5.459608  -2.213227   0.594026
H  -5.643949  -0.555237   0.388730
H  -5.472571  -1.123414   1.974104
H  -3.471673  -1.175477  -0.174191

