%chk=/home/boittier/MDCM/nms_sampling/methanol_geom.xyz.dir/methanol_1631.chk
%nproc=8
%mem=16000MB
#p B2PLYPD3/Def2QZVP 

methanol

0 1
C  -5.185211  -1.249192   0.911486
O  -3.761242  -1.123218   0.865259
H  -5.491802  -2.254031   0.554248
H  -5.715864  -0.472240   0.378316
H  -5.487237  -1.191355   1.919997
H  -3.476037  -1.207114  -0.084208

