%chk=/home/boittier/MDCM/nms_sampling/methanol_geom.xyz.dir/methanol_3157.chk
%nproc=8
%mem=16000MB
#p B2PLYPD3/Def2QZVP 

methanol

0 1
C  -5.208414  -1.249806   0.917244
O  -3.753681  -1.128693   0.867735
H  -5.532227  -2.139121   0.600155
H  -5.497651  -0.532564   0.342335
H  -5.494286  -1.189124   1.958490
H  -3.491477  -1.172921  -0.244969
