%chk=/home/boittier/MDCM/nms_sampling/methanol_geom.xyz.dir/methanol_992.chk
%nproc=8
%mem=16000MB
#p B2PLYPD3/Def2QZVP 

methanol

0 1
C  -5.167708  -1.250831   0.917584
O  -3.772566  -1.125113   0.866585
H  -5.559827  -2.216702   0.540284
H  -5.650822  -0.514826   0.387004
H  -5.491727  -1.158437   1.920122
H  -3.491595  -1.186380  -0.174188
