%chk=/home/boittier/MDCM/nms_sampling/methanol_geom.xyz.dir/methanol_469.chk
%nproc=8
%mem=16000MB
#p B2PLYPD3/Def2QZVP 

methanol

0 1
C  -5.184734  -1.263931   0.916096
O  -3.767408  -1.119797   0.868266
H  -5.547635  -2.165335   0.579173
H  -5.638907  -0.487619   0.352696
H  -5.415416  -1.148758   1.925225
H  -3.474308  -1.205216  -0.194456

