%chk=/home/boittier/MDCM/nms_sampling/methanol_geom.xyz.dir/methanol_2667.chk
%nproc=8
%mem=16000MB
#p B2PLYPD3/Def2QZVP 

methanol

0 1
C  -5.168373  -1.249468   0.921099
O  -3.761766  -1.111341   0.823387
H  -5.617827  -2.387752   0.490479
H  -5.680635  -0.412611   0.305390
H  -5.473896  -1.214216   2.132356
H  -3.593444  -1.289536   0.408770

