%chk=/home/boittier/MDCM/nms_sampling/methanol_geom.xyz.dir/methanol_414.chk
%nproc=8
%mem=16000MB
#p B2PLYPD3/Def2QZVP 

methanol

0 1
C  -5.169028  -1.257823   0.914236
O  -3.772000  -1.120221   0.868191
H  -5.543238  -2.177980   0.542053
H  -5.678975  -0.517886   0.366006
H  -5.458841  -1.161465   1.946088
H  -3.506465  -1.213946  -0.170103
