%chk=/home/boittier/MDCM/nms_sampling/methanol_geom.xyz.dir/methanol_3197.chk
%nproc=8
%mem=16000MB
#p B2PLYPD3/Def2QZVP 

methanol

0 1
C  -5.205105  -1.259416   0.925282
O  -3.757770  -1.111926   0.889293
H  -5.644161  -2.095458   0.552480
H  -5.555128  -0.658589   0.416953
H  -5.311146  -1.174620   1.825717
H  -3.492278  -1.244658  -0.586682

