%chk=/home/boittier/MDCM/nms_sampling/methanol_geom.xyz.dir/methanol_701.chk
%nproc=8
%mem=16000MB
#p B2PLYPD3/Def2QZVP 

methanol

0 1
C  -5.176123  -1.253957   0.908908
O  -3.763246  -1.119969   0.861332
H  -5.509000  -2.227776   0.549377
H  -5.723838  -0.498297   0.343152
H  -5.478040  -1.181354   1.994760
H  -3.533736  -1.213362  -0.028429

