%chk=/home/boittier/MDCM/nms_sampling/methanol_geom.xyz.dir/methanol_3463.chk
%nproc=8
%mem=16000MB
#p B2PLYPD3/Def2QZVP 

methanol

0 1
C  -5.195308  -1.266149   0.893661
O  -3.748710  -1.119144   0.889435
H  -5.536465  -2.048809   0.653975
H  -5.743551  -0.498446   0.406783
H  -5.498046  -1.236894   1.911730
H  -3.463469  -1.215585  -0.391855
