%chk=/home/boittier/MDCM/nms_sampling/methanol_geom.xyz.dir/methanol_2826.chk
%nproc=8
%mem=16000MB
#p B2PLYPD3/Def2QZVP 

methanol

0 1
C  -5.185970  -1.250155   0.920436
O  -3.751181  -1.115079   0.825051
H  -5.583699  -2.368927   0.458228
H  -5.703859  -0.431565   0.300282
H  -5.459167  -1.205443   2.144683
H  -3.580076  -1.232750   0.411943
