%chk=/home/boittier/MDCM/nms_sampling/methanol_geom.xyz.dir/methanol_1965.chk
%nproc=8
%mem=16000MB
#p B2PLYPD3/Def2QZVP 

methanol

0 1
C  -5.166905  -1.260591   0.908075
O  -3.775101  -1.118696   0.875667
H  -5.509438  -2.123463   0.603447
H  -5.688571  -0.531460   0.325168
H  -5.448363  -1.177648   1.946874
H  -3.514753  -1.231216  -0.242555

