%chk=/home/boittier/MDCM/nms_sampling/methanol_geom.xyz.dir/methanol_2731.chk
%nproc=8
%mem=16000MB
#p B2PLYPD3/Def2QZVP 

methanol

0 1
C  -5.154245  -1.261644   0.931249
O  -3.781566  -1.123247   0.881702
H  -5.522947  -2.136074   0.586256
H  -5.581021  -0.432793   0.387339
H  -5.543196  -1.183837   1.725141
H  -3.551170  -1.232376  -0.427771
