%chk=/home/boittier/MDCM/nms_sampling/methanol_geom.xyz.dir/methanol_648.chk
%nproc=8
%mem=16000MB
#p B2PLYPD3/Def2QZVP 

methanol

0 1
C  -5.181049  -1.254922   0.919413
O  -3.765921  -1.120228   0.847779
H  -5.508692  -2.270476   0.508439
H  -5.649298  -0.455415   0.325015
H  -5.460149  -1.156071   2.017687
H  -3.528146  -1.221415   0.106055

