%chk=/home/boittier/MDCM/nms_sampling/methanol_geom.xyz.dir/methanol_2996.chk
%nproc=8
%mem=16000MB
#p B2PLYPD3/Def2QZVP 

methanol

0 1
C  -5.187680  -1.273223   0.915809
O  -3.749038  -1.117616   0.886291
H  -5.674950  -2.030007   0.656354
H  -5.640821  -0.517528   0.362367
H  -5.546604  -1.161837   1.853289
H  -3.463552  -1.235441  -0.500540

