%chk=/home/boittier/MDCM/nms_sampling/methanol_geom.xyz.dir/methanol_1100.chk
%nproc=8
%mem=16000MB
#p B2PLYPD3/Def2QZVP 

methanol

0 1
C  -5.174828  -1.255113   0.911845
O  -3.766173  -1.120226   0.867730
H  -5.479019  -2.214564   0.579449
H  -5.714753  -0.476630   0.335211
H  -5.486622  -1.187332   1.921845
H  -3.531092  -1.225585  -0.114461

