%chk=/home/boittier/MDCM/nms_sampling/methanol_geom.xyz.dir/methanol_3459.chk
%nproc=8
%mem=16000MB
#p B2PLYPD3/Def2QZVP 

methanol

0 1
C  -5.161577  -1.255837   0.914173
O  -3.780112  -1.126197   0.844718
H  -5.372815  -2.275600   0.469882
H  -5.771238  -0.332036   0.318689
H  -5.548790  -1.168788   2.008387
H  -3.446916  -1.228528   0.273284

