%chk=/home/boittier/MDCM/nms_sampling/methanol_geom.xyz.dir/methanol_1891.chk
%nproc=8
%mem=16000MB
#p B2PLYPD3/Def2QZVP 

methanol

0 1
C  -5.185671  -1.262942   0.913502
O  -3.755447  -1.118045   0.848699
H  -5.568794  -2.219564   0.572386
H  -5.699645  -0.398216   0.308192
H  -5.490375  -1.204895   2.030880
H  -3.492850  -1.228608   0.101438
