%chk=/home/boittier/MDCM/nms_sampling/methanol_geom.xyz.dir/methanol_36.chk
%nproc=8
%mem=16000MB
#p B2PLYPD3/Def2QZVP 

methanol

0 1
C  -5.173729  -1.248358   0.910105
O  -3.771666  -1.123857   0.859987
H  -5.475082  -2.273129   0.534702
H  -5.717955  -0.464213   0.376521
H  -5.468726  -1.181594   1.958325
H  -3.478176  -1.203597   0.000466

