%chk=/home/boittier/MDCM/nms_sampling/methanol_geom.xyz.dir/methanol_3014.chk
%nproc=8
%mem=16000MB
#p B2PLYPD3/Def2QZVP 

methanol

0 1
C  -5.215588  -1.270022   0.930094
O  -3.747353  -1.117306   0.881912
H  -5.517878  -2.108357   0.600767
H  -5.650591  -0.443714   0.318940
H  -5.408912  -1.206437   1.753829
H  -3.453026  -1.219990  -0.395760

