%chk=/home/boittier/MDCM/nms_sampling/methanol_geom.xyz.dir/methanol_2530.chk
%nproc=8
%mem=16000MB
#p B2PLYPD3/Def2QZVP 

methanol

0 1
C  -5.169167  -1.233248   0.928601
O  -3.766721  -1.128464   0.860448
H  -5.622003  -2.268684   0.467170
H  -5.603103  -0.535475   0.433657
H  -5.531910  -1.246741   1.903857
H  -3.514371  -1.175289  -0.159906
