%chk=/home/boittier/MDCM/nms_sampling/methanol_geom.xyz.dir/methanol_406.chk
%nproc=8
%mem=16000MB
#p B2PLYPD3/Def2QZVP 

methanol

0 1
C  -5.185181  -1.253491   0.906999
O  -3.766122  -1.123679   0.857524
H  -5.503966  -2.255456   0.554861
H  -5.707356  -0.479520   0.356355
H  -5.427914  -1.153657   2.009952
H  -3.455413  -1.177202   0.023812

