%chk=/home/boittier/MDCM/nms_sampling/methanol_geom.xyz.dir/methanol_1436.chk
%nproc=8
%mem=16000MB
#p B2PLYPD3/Def2QZVP 

methanol

0 1
C  -5.180960  -1.259546   0.904351
O  -3.760784  -1.122185   0.845611
H  -5.434809  -2.298455   0.571659
H  -5.744135  -0.365668   0.314962
H  -5.516957  -1.153554   2.044089
H  -3.527081  -1.207553   0.242422
