%chk=/home/boittier/MDCM/nms_sampling/methanol_geom.xyz.dir/methanol_122.chk
%nproc=8
%mem=16000MB
#p B2PLYPD3/Def2QZVP 

methanol

0 1
C  -5.178087  -1.251578   0.916412
O  -3.764913  -1.125976   0.851112
H  -5.499156  -2.281783   0.540026
H  -5.692037  -0.421467   0.333480
H  -5.520409  -1.164052   1.978330
H  -3.480990  -1.189438   0.089100

