%chk=/home/boittier/MDCM/nms_sampling/methanol_geom.xyz.dir/methanol_2030.chk
%nproc=8
%mem=16000MB
#p B2PLYPD3/Def2QZVP 

methanol

0 1
C  -5.198843  -1.262588   0.921780
O  -3.757471  -1.121481   0.851548
H  -5.509315  -2.237645   0.547067
H  -5.679457  -0.399770   0.298118
H  -5.414407  -1.179081   1.962869
H  -3.464222  -1.181158   0.061674

