%chk=/home/boittier/MDCM/nms_sampling/methanol_geom.xyz.dir/methanol_2396.chk
%nproc=8
%mem=16000MB
#p B2PLYPD3/Def2QZVP 

methanol

0 1
C  -5.180180  -1.256422   0.903087
O  -3.771786  -1.121463   0.882230
H  -5.459191  -2.136834   0.615361
H  -5.628006  -0.537690   0.394563
H  -5.462120  -1.159939   1.905644
H  -3.511605  -1.232547  -0.327901

