%chk=/home/boittier/MDCM/nms_sampling/methanol_geom.xyz.dir/methanol_1837.chk
%nproc=8
%mem=16000MB
#p B2PLYPD3/Def2QZVP 

methanol

0 1
C  -5.182258  -1.261020   0.901390
O  -3.771391  -1.117466   0.855465
H  -5.467206  -2.249116   0.560479
H  -5.702116  -0.444432   0.368710
H  -5.374005  -1.161071   2.037730
H  -3.502135  -1.218399   0.078226

