%chk=/home/boittier/MDCM/nms_sampling/methanol_geom.xyz.dir/methanol_1477.chk
%nproc=8
%mem=16000MB
#p B2PLYPD3/Def2QZVP 

methanol

0 1
C  -5.199376  -1.260873   0.920760
O  -3.756712  -1.123726   0.845064
H  -5.520292  -2.264744   0.533780
H  -5.648156  -0.376086   0.325393
H  -5.480394  -1.142660   1.993904
H  -3.425380  -1.200629   0.135806
