%chk=/home/boittier/MDCM/nms_sampling/methanol_geom.xyz.dir/methanol_3291.chk
%nproc=8
%mem=16000MB
#p B2PLYPD3/Def2QZVP 

methanol

0 1
C  -5.140436  -1.261215   0.891847
O  -3.781784  -1.119366   0.892592
H  -5.545802  -2.113483   0.619807
H  -5.753362  -0.586267   0.457866
H  -5.499619  -1.139363   1.904599
H  -3.564374  -1.209044  -0.431904
