%chk=/home/boittier/MDCM/nms_sampling/methanol_geom.xyz.dir/methanol_2118.chk
%nproc=8
%mem=16000MB
#p B2PLYPD3/Def2QZVP 

methanol

0 1
C  -5.169020  -1.253001   0.905794
O  -3.768331  -1.124040   0.854903
H  -5.505629  -2.240259   0.527980
H  -5.742238  -0.481214   0.344717
H  -5.497716  -1.163557   2.049550
H  -3.499259  -1.184575   0.077308
