%chk=/home/boittier/MDCM/nms_sampling/methanol_geom.xyz.dir/methanol_3048.chk
%nproc=8
%mem=16000MB
#p B2PLYPD3/Def2QZVP 

methanol

0 1
C  -5.195108  -1.251236   0.932624
O  -3.757253  -1.114368   0.880822
H  -5.506623  -2.232258   0.501557
H  -5.611454  -0.573976   0.407295
H  -5.392384  -1.182596   1.754753
H  -3.616282  -1.242350  -0.398149

