%chk=/home/boittier/MDCM/nms_sampling/methanol_geom.xyz.dir/methanol_2183.chk
%nproc=8
%mem=16000MB
#p B2PLYPD3/Def2QZVP 

methanol

0 1
C  -5.170396  -1.252331   0.912518
O  -3.774829  -1.122646   0.882971
H  -5.466875  -2.212154   0.574613
H  -5.704746  -0.568414   0.381368
H  -5.443429  -1.118351   1.837103
H  -3.516321  -1.194956  -0.327570
