%chk=/home/boittier/MDCM/nms_sampling/methanol_geom.xyz.dir/methanol_3145.chk
%nproc=8
%mem=16000MB
#p B2PLYPD3/Def2QZVP 

methanol

0 1
C  -5.206106  -1.248822   0.912325
O  -3.749600  -1.123027   0.837178
H  -5.460540  -2.363769   0.406823
H  -5.833172  -0.407037   0.361646
H  -5.460013  -1.158485   2.074332
H  -3.364241  -1.200441   0.370902

