%chk=/home/boittier/MDCM/nms_sampling/methanol_geom.xyz.dir/methanol_963.chk
%nproc=8
%mem=16000MB
#p B2PLYPD3/Def2QZVP 

methanol

0 1
C  -5.175189  -1.257789   0.914573
O  -3.772482  -1.120742   0.871513
H  -5.477684  -2.182667   0.579484
H  -5.660295  -0.484781   0.348635
H  -5.447578  -1.176450   1.896408
H  -3.521061  -1.219163  -0.196339
