%chk=/home/boittier/MDCM/nms_sampling/methanol_geom.xyz.dir/methanol_2558.chk
%nproc=8
%mem=16000MB
#p B2PLYPD3/Def2QZVP 

methanol

0 1
C  -5.200586  -1.262015   0.900434
O  -3.765592  -1.126604   0.876937
H  -5.470649  -2.068503   0.585527
H  -5.697267  -0.507136   0.350287
H  -5.398304  -1.187939   1.988118
H  -3.348943  -1.160686  -0.223513

