%chk=/home/boittier/MDCM/nms_sampling/methanol_geom.xyz.dir/methanol_2569.chk
%nproc=8
%mem=16000MB
#p B2PLYPD3/Def2QZVP 

methanol

0 1
C  -5.182759  -1.257452   0.924404
O  -3.776516  -1.131399   0.862484
H  -5.524830  -2.116599   0.542230
H  -5.505502  -0.481862   0.335192
H  -5.471047  -1.153815   1.959184
H  -3.446148  -1.150812  -0.180109

