%chk=/home/boittier/MDCM/nms_sampling/methanol_geom.xyz.dir/methanol_939.chk
%nproc=8
%mem=16000MB
#p B2PLYPD3/Def2QZVP 

methanol

0 1
C  -5.187797  -1.259284   0.919932
O  -3.761537  -1.120450   0.852176
H  -5.507640  -2.270314   0.516015
H  -5.690579  -0.425414   0.341257
H  -5.448582  -1.149084   1.961954
H  -3.488845  -1.205925   0.062458

