%chk=/home/boittier/MDCM/nms_sampling/methanol_geom.xyz.dir/methanol_1315.chk
%nproc=8
%mem=16000MB
#p B2PLYPD3/Def2QZVP 

methanol

0 1
C  -5.164880  -1.261176   0.910673
O  -3.770103  -1.120194   0.871912
H  -5.536350  -2.144533   0.585174
H  -5.720596  -0.505714   0.329843
H  -5.469253  -1.189340   1.942909
H  -3.534752  -1.196855  -0.193270

