%chk=/home/boittier/MDCM/nms_sampling/methanol_geom.xyz.dir/methanol_959.chk
%nproc=8
%mem=16000MB
#p B2PLYPD3/Def2QZVP 

methanol

0 1
C  -5.177841  -1.255546   0.917373
O  -3.770061  -1.126135   0.853082
H  -5.535711  -2.219072   0.531090
H  -5.659337  -0.442802   0.334401
H  -5.472050  -1.170194   2.000433
H  -3.444872  -1.175174   0.028898
