%chk=/home/boittier/MDCM/nms_sampling/methanol_geom.xyz.dir/methanol_2972.chk
%nproc=8
%mem=16000MB
#p B2PLYPD3/Def2QZVP 

methanol

0 1
C  -5.169747  -1.237926   0.891238
O  -3.769953  -1.131099   0.836729
H  -5.389624  -2.335341   0.603484
H  -5.707861  -0.396948   0.292741
H  -5.582543  -1.215008   2.176319
H  -3.528131  -1.188526   0.397567
