%chk=/home/boittier/MDCM/nms_sampling/methanol_geom.xyz.dir/methanol_2989.chk
%nproc=8
%mem=16000MB
#p B2PLYPD3/Def2QZVP 

methanol

0 1
C  -5.186832  -1.249572   0.890572
O  -3.749263  -1.128592   0.886620
H  -5.602204  -2.144227   0.603553
H  -5.780298  -0.632983   0.445626
H  -5.545627  -1.132436   1.970393
H  -3.413125  -1.132492  -0.359083
