%chk=/home/boittier/MDCM/nms_sampling/methanol_geom.xyz.dir/methanol_3043.chk
%nproc=8
%mem=16000MB
#p B2PLYPD3/Def2QZVP 

methanol

0 1
C  -5.190021  -1.266086   0.898284
O  -3.743138  -1.115707   0.896253
H  -5.578995  -2.091081   0.532619
H  -5.841370  -0.632456   0.465216
H  -5.488069  -1.126812   1.885964
H  -3.494344  -1.200069  -0.472724
