%chk=/home/boittier/MDCM/nms_sampling/methanol_geom.xyz.dir/methanol_586.chk
%nproc=8
%mem=16000MB
#p B2PLYPD3/Def2QZVP 

methanol

0 1
C  -5.178645  -1.262107   0.910187
O  -3.765105  -1.120255   0.853103
H  -5.501447  -2.252168   0.526453
H  -5.755516  -0.424931   0.343013
H  -5.433710  -1.159062   2.009193
H  -3.492572  -1.186027   0.101116
