%chk=/home/boittier/MDCM/nms_sampling/methanol_geom.xyz.dir/methanol_1368.chk
%nproc=8
%mem=16000MB
#p B2PLYPD3/Def2QZVP 

methanol

0 1
C  -5.160025  -1.252644   0.905103
O  -3.775696  -1.127546   0.870203
H  -5.464505  -2.210330   0.590484
H  -5.721763  -0.464739   0.371312
H  -5.539378  -1.165311   1.925701
H  -3.502800  -1.181007  -0.125247

