%chk=/home/boittier/MDCM/nms_sampling/methanol_geom.xyz.dir/methanol_627.chk
%nproc=8
%mem=16000MB
#p B2PLYPD3/Def2QZVP 

methanol

0 1
C  -5.170092  -1.247901   0.912361
O  -3.771785  -1.125500   0.866031
H  -5.527060  -2.219592   0.552089
H  -5.693022  -0.520068   0.360205
H  -5.484576  -1.178002   1.952650
H  -3.474429  -1.186221  -0.122663

