%chk=/home/boittier/MDCM/nms_sampling/methanol_geom.xyz.dir/methanol_1431.chk
%nproc=8
%mem=16000MB
#p B2PLYPD3/Def2QZVP 

methanol

0 1
C  -5.182489  -1.261839   0.915606
O  -3.771347  -1.121453   0.877187
H  -5.486883  -2.172066   0.628926
H  -5.679920  -0.473546   0.327261
H  -5.402936  -1.166295   1.841931
H  -3.468839  -1.193369  -0.272913
