%chk=/home/boittier/MDCM/nms_sampling/methanol_geom.xyz.dir/methanol_2825.chk
%nproc=8
%mem=16000MB
#p B2PLYPD3/Def2QZVP 

methanol

0 1
C  -5.184449  -1.248517   0.907583
O  -3.777589  -1.129884   0.849172
H  -5.425270  -2.413316   0.530791
H  -5.756295  -0.439340   0.376684
H  -5.368030  -1.049657   1.976655
H  -3.378947  -1.118304   0.195764
