%chk=/home/boittier/MDCM/nms_sampling/methanol_geom.xyz.dir/methanol_1207.chk
%nproc=8
%mem=16000MB
#p B2PLYPD3/Def2QZVP 

methanol

0 1
C  -5.173807  -1.247449   0.919081
O  -3.762857  -1.122699   0.839706
H  -5.546426  -2.316967   0.484042
H  -5.669298  -0.481722   0.317663
H  -5.525155  -1.144084   2.078318
H  -3.540414  -1.210349   0.211467
