%chk=/home/boittier/MDCM/nms_sampling/methanol_geom.xyz.dir/methanol_1712.chk
%nproc=8
%mem=16000MB
#p B2PLYPD3/Def2QZVP 

methanol

0 1
C  -5.169997  -1.266191   0.922255
O  -3.768642  -1.121166   0.870983
H  -5.617030  -2.182988   0.571566
H  -5.693259  -0.483112   0.366582
H  -5.438478  -1.131006   1.861501
H  -3.477404  -1.165510  -0.251703

