%chk=/home/boittier/MDCM/nms_sampling/methanol_geom.xyz.dir/methanol_3110.chk
%nproc=8
%mem=16000MB
#p B2PLYPD3/Def2QZVP 

methanol

0 1
C  -5.193124  -1.269238   0.892073
O  -3.748429  -1.126591   0.890551
H  -5.580102  -2.035523   0.671372
H  -5.745508  -0.515772   0.408061
H  -5.559669  -1.143173   1.923717
H  -3.383909  -1.158134  -0.422469

