%chk=/home/boittier/MDCM/nms_sampling/methanol_geom.xyz.dir/methanol_1387.chk
%nproc=8
%mem=16000MB
#p B2PLYPD3/Def2QZVP 

methanol

0 1
C  -5.185388  -1.257410   0.906145
O  -3.763314  -1.122043   0.879540
H  -5.434090  -2.190015   0.626559
H  -5.663188  -0.512193   0.365955
H  -5.484969  -1.135539   1.875221
H  -3.552197  -1.210869  -0.270078

