%chk=/home/boittier/MDCM/nms_sampling/methanol_geom.xyz.dir/methanol_2967.chk
%nproc=8
%mem=16000MB
#p B2PLYPD3/Def2QZVP 

methanol

0 1
C  -5.145103  -1.256017   0.905311
O  -3.783308  -1.114558   0.885482
H  -5.518368  -2.196722   0.621019
H  -5.768754  -0.510171   0.410953
H  -5.446771  -1.209892   1.822385
H  -3.554442  -1.262343  -0.341677

