%chk=/home/boittier/MDCM/nms_sampling/methanol_geom.xyz.dir/methanol_2175.chk
%nproc=8
%mem=16000MB
#p B2PLYPD3/Def2QZVP 

methanol

0 1
C  -5.190439  -1.264430   0.918732
O  -3.754457  -1.123602   0.877236
H  -5.581353  -2.132584   0.583046
H  -5.657191  -0.474345   0.391479
H  -5.507126  -1.162852   1.844652
H  -3.463662  -1.178898  -0.331727
