%chk=/home/boittier/MDCM/nms_sampling/methanol_geom.xyz.dir/methanol_1122.chk
%nproc=8
%mem=16000MB
#p B2PLYPD3/Def2QZVP 

methanol

0 1
C  -5.177703  -1.248107   0.908995
O  -3.765755  -1.123434   0.856099
H  -5.496942  -2.255815   0.515168
H  -5.720436  -0.485800   0.361686
H  -5.492343  -1.182835   2.018375
H  -3.477882  -1.208960   0.048235

