%chk=/home/boittier/MDCM/nms_sampling/methanol_geom.xyz.dir/methanol_2420.chk
%nproc=8
%mem=16000MB
#p B2PLYPD3/Def2QZVP 

methanol

0 1
C  -5.148173  -1.256718   0.912135
O  -3.781939  -1.113674   0.846519
H  -5.472793  -2.391552   0.519533
H  -5.760000  -0.396287   0.380509
H  -5.449899  -1.126291   1.966368
H  -3.597573  -1.267847   0.204039

