%chk=/home/boittier/MDCM/nms_sampling/methanol_geom.xyz.dir/methanol_3487.chk
%nproc=8
%mem=16000MB
#p B2PLYPD3/Def2QZVP 

methanol

0 1
C  -5.171308  -1.262917   0.904057
O  -3.759509  -1.120079   0.834942
H  -5.375347  -2.326993   0.530084
H  -5.748483  -0.267836   0.330417
H  -5.593171  -1.186238   2.072054
H  -3.633055  -1.241899   0.420139

