%chk=/home/boittier/MDCM/nms_sampling/methanol_geom.xyz.dir/methanol_330.chk
%nproc=8
%mem=16000MB
#p B2PLYPD3/Def2QZVP 

methanol

0 1
C  -5.185921  -1.251124   0.918902
O  -3.764840  -1.125560   0.849837
H  -5.483506  -2.281328   0.541248
H  -5.648864  -0.413814   0.328472
H  -5.485096  -1.178850   1.973458
H  -3.485446  -1.192293   0.089594

