%chk=/home/boittier/MDCM/nms_sampling/methanol_geom.xyz.dir/methanol_1878.chk
%nproc=8
%mem=16000MB
#p B2PLYPD3/Def2QZVP 

methanol

0 1
C  -5.197922  -1.251978   0.910253
O  -3.757781  -1.120900   0.875369
H  -5.559329  -2.196690   0.605784
H  -5.644049  -0.573617   0.375994
H  -5.428397  -1.145556   1.917810
H  -3.451176  -1.209653  -0.284188
