%chk=/home/boittier/MDCM/nms_sampling/methanol_geom.xyz.dir/methanol_2086.chk
%nproc=8
%mem=16000MB
#p B2PLYPD3/Def2QZVP 

methanol

0 1
C  -5.188017  -1.252518   0.922350
O  -3.767816  -1.125988   0.874983
H  -5.515371  -2.127349   0.561928
H  -5.543954  -0.551765   0.351115
H  -5.488017  -1.157758   1.893083
H  -3.484102  -1.205848  -0.329096

