%chk=/home/boittier/MDCM/nms_sampling/methanol_geom.xyz.dir/methanol_2781.chk
%nproc=8
%mem=16000MB
#p B2PLYPD3/Def2QZVP 

methanol

0 1
C  -5.168196  -1.227908   0.917328
O  -3.785911  -1.132569   0.830106
H  -5.418518  -2.479954   0.466251
H  -5.662799  -0.408134   0.362639
H  -5.424395  -1.182834   2.044105
H  -3.479051  -1.144355   0.403162
