%chk=/home/boittier/MDCM/nms_sampling/methanol_geom.xyz.dir/methanol_3052.chk
%nproc=8
%mem=16000MB
#p B2PLYPD3/Def2QZVP 

methanol

0 1
C  -5.208160  -1.255079   0.938825
O  -3.760667  -1.119581   0.889098
H  -5.566311  -2.170903   0.524161
H  -5.604587  -0.589435   0.394204
H  -5.340398  -1.140383   1.694611
H  -3.408881  -1.204400  -0.555932

