%chk=/home/boittier/MDCM/nms_sampling/methanol_geom.xyz.dir/methanol_2223.chk
%nproc=8
%mem=16000MB
#p B2PLYPD3/Def2QZVP 

methanol

0 1
C  -5.189224  -1.262352   0.906753
O  -3.760040  -1.119369   0.856805
H  -5.483963  -2.192744   0.576099
H  -5.715092  -0.449628   0.297383
H  -5.460183  -1.169567   2.037268
H  -3.480623  -1.222693   0.046334

