%chk=/home/boittier/MDCM/nms_sampling/methanol_geom.xyz.dir/methanol_2763.chk
%nproc=8
%mem=16000MB
#p B2PLYPD3/Def2QZVP 

methanol

0 1
C  -5.167444  -1.238412   0.902952
O  -3.767818  -1.126698   0.899410
H  -5.428365  -2.077327   0.569828
H  -5.734137  -0.593671   0.417411
H  -5.606258  -1.282313   1.826155
H  -3.499142  -1.245972  -0.507346

