%chk=/home/boittier/MDCM/nms_sampling/methanol_geom.xyz.dir/methanol_2784.chk
%nproc=8
%mem=16000MB
#p B2PLYPD3/Def2QZVP 

methanol

0 1
C  -5.200771  -1.251104   0.927412
O  -3.771003  -1.128810   0.870331
H  -5.525811  -2.247179   0.653582
H  -5.622976  -0.452846   0.299291
H  -5.372701  -1.153728   1.793113
H  -3.313822  -1.157987  -0.243825

