%chk=/home/boittier/MDCM/nms_sampling/methanol_geom.xyz.dir/methanol_582.chk
%nproc=8
%mem=16000MB
#p B2PLYPD3/Def2QZVP 

methanol

0 1
C  -5.188695  -1.257543   0.917816
O  -3.761772  -1.124649   0.869576
H  -5.529883  -2.164902   0.561918
H  -5.633888  -0.498628   0.356059
H  -5.481045  -1.158847   1.913337
H  -3.472865  -1.185423  -0.210788
