%chk=/home/boittier/MDCM/nms_sampling/methanol_geom.xyz.dir/methanol_1009.chk
%nproc=8
%mem=16000MB
#p B2PLYPD3/Def2QZVP 

methanol

0 1
C  -5.180345  -1.256866   0.911485
O  -3.762667  -1.120823   0.868604
H  -5.516228  -2.180334   0.551425
H  -5.696082  -0.503472   0.362189
H  -5.491991  -1.171225   1.947095
H  -3.498657  -1.219916  -0.150658

