%chk=/home/boittier/MDCM/nms_sampling/methanol_geom.xyz.dir/methanol_3359.chk
%nproc=8
%mem=16000MB
#p B2PLYPD3/Def2QZVP 

methanol

0 1
C  -5.191937  -1.269413   0.926188
O  -3.771523  -1.123646   0.888777
H  -5.606405  -2.008527   0.646406
H  -5.568414  -0.573472   0.287540
H  -5.335338  -1.160290   1.830062
H  -3.411262  -1.141652  -0.559047

