%chk=/home/boittier/MDCM/nms_sampling/methanol_geom.xyz.dir/methanol_184.chk
%nproc=8
%mem=16000MB
#p B2PLYPD3/Def2QZVP 

methanol

0 1
C  -5.186035  -1.254698   0.915274
O  -3.760202  -1.121938   0.856385
H  -5.559944  -2.238515   0.537049
H  -5.693410  -0.461744   0.357596
H  -5.469061  -1.180102   1.980430
H  -3.454398  -1.201454  -0.008355
