%chk=/home/boittier/MDCM/nms_sampling/methanol_geom.xyz.dir/methanol_475.chk
%nproc=8
%mem=16000MB
#p B2PLYPD3/Def2QZVP 

methanol

0 1
C  -5.181997  -1.255521   0.911163
O  -3.765064  -1.121408   0.872446
H  -5.467173  -2.203910   0.589174
H  -5.670893  -0.495382   0.359559
H  -5.491215  -1.153284   1.897897
H  -3.517701  -1.227576  -0.192852
