%chk=/home/boittier/MDCM/nms_sampling/methanol_geom.xyz.dir/methanol_165.chk
%nproc=8
%mem=16000MB
#p B2PLYPD3/Def2QZVP 

methanol

0 1
C  -5.180207  -1.256212   0.916595
O  -3.769742  -1.123954   0.848525
H  -5.526258  -2.261256   0.557363
H  -5.660322  -0.429649   0.309897
H  -5.442706  -1.157172   2.013539
H  -3.462881  -1.183728   0.098812

