%chk=/home/boittier/MDCM/nms_sampling/methanol_geom.xyz.dir/methanol_713.chk
%nproc=8
%mem=16000MB
#p B2PLYPD3/Def2QZVP 

methanol

0 1
C  -5.175518  -1.253245   0.914545
O  -3.773738  -1.123557   0.849259
H  -5.501115  -2.276522   0.531445
H  -5.656615  -0.455590   0.334494
H  -5.450234  -1.137566   2.022951
H  -3.478712  -1.200526   0.102244

