%chk=/home/boittier/MDCM/nms_sampling/methanol_geom.xyz.dir/methanol_2573.chk
%nproc=8
%mem=16000MB
#p B2PLYPD3/Def2QZVP 

methanol

0 1
C  -5.179009  -1.246830   0.909800
O  -3.764051  -1.116952   0.850031
H  -5.462439  -2.381146   0.554424
H  -5.725065  -0.470028   0.343199
H  -5.416778  -1.170076   1.991341
H  -3.602516  -1.222383   0.148874
