%chk=/home/boittier/MDCM/nms_sampling/methanol_geom.xyz.dir/methanol_2269.chk
%nproc=8
%mem=16000MB
#p B2PLYPD3/Def2QZVP 

methanol

0 1
C  -5.191306  -1.255104   0.901960
O  -3.755562  -1.127255   0.879258
H  -5.543753  -2.126390   0.611697
H  -5.712125  -0.512091   0.393616
H  -5.502082  -1.203909   1.928246
H  -3.424246  -1.156355  -0.284280

