%chk=/home/boittier/MDCM/nms_sampling/methanol_geom.xyz.dir/methanol_1200.chk
%nproc=8
%mem=16000MB
#p B2PLYPD3/Def2QZVP 

methanol

0 1
C  -5.184615  -1.261644   0.923506
O  -3.759837  -1.117949   0.852569
H  -5.540035  -2.247612   0.534375
H  -5.646182  -0.400627   0.346506
H  -5.483387  -1.177278   1.937983
H  -3.527448  -1.239201   0.015837
