%chk=/home/boittier/MDCM/nms_sampling/methanol_geom.xyz.dir/methanol_2755.chk
%nproc=8
%mem=16000MB
#p B2PLYPD3/Def2QZVP 

methanol

0 1
C  -5.188918  -1.268500   0.927503
O  -3.745601  -1.114681   0.838619
H  -5.660854  -2.221331   0.469933
H  -5.709125  -0.393740   0.311951
H  -5.470540  -1.216782   2.052223
H  -3.528554  -1.208525   0.176159
