%chk=/home/boittier/MDCM/nms_sampling/methanol_geom.xyz.dir/methanol_2051.chk
%nproc=8
%mem=16000MB
#p B2PLYPD3/Def2QZVP 

methanol

0 1
C  -5.169218  -1.255843   0.908512
O  -3.764133  -1.119293   0.847687
H  -5.466799  -2.320227   0.495457
H  -5.763988  -0.405110   0.378081
H  -5.499563  -1.170518   2.017157
H  -3.579837  -1.214144   0.199368

