%chk=/home/boittier/MDCM/nms_sampling/methanol_geom.xyz.dir/methanol_199.chk
%nproc=8
%mem=16000MB
#p B2PLYPD3/Def2QZVP 

methanol

0 1
C  -5.186601  -1.260017   0.919669
O  -3.758651  -1.119952   0.869773
H  -5.546367  -2.187875   0.575501
H  -5.704891  -0.481792   0.330397
H  -5.463121  -1.175749   1.884084
H  -3.478697  -1.207246  -0.193338

