%chk=/home/boittier/MDCM/nms_sampling/methanol_geom.xyz.dir/methanol_1757.chk
%nproc=8
%mem=16000MB
#p B2PLYPD3/Def2QZVP 

methanol

0 1
C  -5.172170  -1.254460   0.904501
O  -3.775539  -1.122204   0.878578
H  -5.497281  -2.162167   0.632768
H  -5.633681  -0.558093   0.364139
H  -5.431308  -1.158211   1.927450
H  -3.533182  -1.198777  -0.294217
