%chk=/home/boittier/MDCM/nms_sampling/methanol_geom.xyz.dir/methanol_3561.chk
%nproc=8
%mem=16000MB
#p B2PLYPD3/Def2QZVP 

methanol

0 1
C  -5.200093  -1.258255   0.922437
O  -3.758140  -1.112564   0.832455
H  -5.417280  -2.411978   0.501771
H  -5.783536  -0.384119   0.226484
H  -5.353016  -1.129406   2.032415
H  -3.503290  -1.253267   0.412940

