%chk=/home/boittier/MDCM/nms_sampling/methanol_geom.xyz.dir/methanol_571.chk
%nproc=8
%mem=16000MB
#p B2PLYPD3/Def2QZVP 

methanol

0 1
C  -5.191576  -1.255504   0.920993
O  -3.761706  -1.125352   0.870895
H  -5.502824  -2.188271   0.568698
H  -5.641855  -0.502523   0.335122
H  -5.477475  -1.143935   1.878891
H  -3.464951  -1.184765  -0.220382
