%chk=/home/boittier/MDCM/nms_sampling/methanol_geom.xyz.dir/methanol_3516.chk
%nproc=8
%mem=16000MB
#p B2PLYPD3/Def2QZVP 

methanol

0 1
C  -5.152054  -1.243859   0.891161
O  -3.784900  -1.132648   0.888784
H  -5.475520  -2.064603   0.630825
H  -5.671182  -0.541735   0.428055
H  -5.553555  -1.268451   1.943091
H  -3.468785  -1.169370  -0.382678

