%chk=/home/boittier/MDCM/nms_sampling/methanol_geom.xyz.dir/methanol_2385.chk
%nproc=8
%mem=16000MB
#p B2PLYPD3/Def2QZVP 

methanol

0 1
C  -5.171330  -1.257279   0.924742
O  -3.775492  -1.121137   0.840816
H  -5.478056  -2.321557   0.509871
H  -5.653372  -0.411551   0.287744
H  -5.426285  -1.128767   2.004874
H  -3.549484  -1.198753   0.207464

