%chk=/home/boittier/MDCM/nms_sampling/methanol_geom.xyz.dir/methanol_17.chk
%nproc=8
%mem=16000MB
#p B2PLYPD3/Def2QZVP 

methanol

0 1
C  -5.185132  -1.252151   0.919452
O  -3.768057  -1.122507   0.870108
H  -5.534515  -2.225812   0.552288
H  -5.657813  -0.507195   0.382641
H  -5.422620  -1.166061   1.873179
H  -3.450789  -1.199111  -0.212913
