%chk=/home/boittier/MDCM/nms_sampling/methanol_geom.xyz.dir/methanol_3057.chk
%nproc=8
%mem=16000MB
#p B2PLYPD3/Def2QZVP 

methanol

0 1
C  -5.185731  -1.268322   0.935839
O  -3.752597  -1.116773   0.882546
H  -5.565550  -2.083531   0.563289
H  -5.617120  -0.482018   0.332210
H  -5.560830  -1.179717   1.754844
H  -3.550050  -1.266596  -0.452533
