%chk=/home/boittier/MDCM/nms_sampling/methanol_geom.xyz.dir/methanol_695.chk
%nproc=8
%mem=16000MB
#p B2PLYPD3/Def2QZVP 

methanol

0 1
C  -5.170037  -1.255720   0.921013
O  -3.770908  -1.121270   0.867870
H  -5.547176  -2.189585   0.565645
H  -5.677150  -0.490870   0.330030
H  -5.474079  -1.185140   1.897824
H  -3.493168  -1.215074  -0.182220

