%chk=/home/boittier/MDCM/nms_sampling/methanol_geom.xyz.dir/methanol_12.chk
%nproc=8
%mem=16000MB
#p B2PLYPD3/Def2QZVP 

methanol

0 1
C  -5.167446  -1.256528   0.915532
O  -3.772424  -1.121613   0.850510
H  -5.525821  -2.234394   0.550464
H  -5.670879  -0.436356   0.309939
H  -5.481790  -1.182612   2.019977
H  -3.518008  -1.213058   0.078070
