%chk=/home/boittier/MDCM/nms_sampling/methanol_geom.xyz.dir/methanol_2775.chk
%nproc=8
%mem=16000MB
#p B2PLYPD3/Def2QZVP 

methanol

0 1
C  -5.185242  -1.278096   0.921784
O  -3.771353  -1.114860   0.884796
H  -5.643374  -2.048247   0.650088
H  -5.580898  -0.568953   0.320173
H  -5.329749  -1.095216   1.858063
H  -3.454239  -1.206562  -0.504882
