%chk=/home/boittier/MDCM/nms_sampling/methanol_geom.xyz.dir/methanol_3541.chk
%nproc=8
%mem=16000MB
#p B2PLYPD3/Def2QZVP 

methanol

0 1
C  -5.202241  -1.255519   0.912910
O  -3.756285  -1.126440   0.867287
H  -5.461612  -2.198986   0.576029
H  -5.661868  -0.428811   0.367602
H  -5.450729  -1.214733   1.901233
H  -3.469572  -1.160431  -0.125913

