%chk=/home/boittier/MDCM/nms_sampling/methanol_geom.xyz.dir/methanol_3030.chk
%nproc=8
%mem=16000MB
#p B2PLYPD3/Def2QZVP 

methanol

0 1
C  -5.169023  -1.249089   0.903134
O  -3.785473  -1.130141   0.852426
H  -5.380335  -2.197527   0.542819
H  -5.615816  -0.456010   0.317308
H  -5.537590  -1.137742   2.092694
H  -3.437589  -1.226807   0.116802
