%chk=/home/boittier/MDCM/nms_sampling/methanol_geom.xyz.dir/methanol_50.chk
%nproc=8
%mem=16000MB
#p B2PLYPD3/Def2QZVP 

methanol

0 1
C  -5.181805  -1.255172   0.910233
O  -3.769960  -1.122838   0.873108
H  -5.514329  -2.198113   0.582930
H  -5.675248  -0.526274   0.374665
H  -5.431896  -1.138790   1.914442
H  -3.452083  -1.196046  -0.219042
