%chk=/home/boittier/MDCM/nms_sampling/methanol_geom.xyz.dir/methanol_1926.chk
%nproc=8
%mem=16000MB
#p B2PLYPD3/Def2QZVP 

methanol

0 1
C  -5.184369  -1.253303   0.917713
O  -3.758866  -1.123107   0.874155
H  -5.643297  -2.176743   0.572233
H  -5.680810  -0.548548   0.387966
H  -5.473446  -1.171577   1.891206
H  -3.420671  -1.183616  -0.303638
