%chk=/home/boittier/MDCM/nms_sampling/methanol_geom.xyz.dir/methanol_22.chk
%nproc=8
%mem=16000MB
#p B2PLYPD3/Def2QZVP 

methanol

0 1
C  -5.171242  -1.258023   0.911873
O  -3.773696  -1.122692   0.852515
H  -5.461193  -2.264770   0.560627
H  -5.685109  -0.412649   0.326248
H  -5.464742  -1.153015   1.991604
H  -3.521627  -1.200643   0.092665

