%chk=/home/boittier/MDCM/nms_sampling/methanol_geom.xyz.dir/methanol_3002.chk
%nproc=8
%mem=16000MB
#p B2PLYPD3/Def2QZVP 

methanol

0 1
C  -5.199013  -1.257259   0.922387
O  -3.773865  -1.128869   0.892791
H  -5.502571  -2.114648   0.614710
H  -5.614615  -0.505186   0.397547
H  -5.385308  -1.154562   1.720556
H  -3.303909  -1.166116  -0.540324

