%chk=/home/boittier/MDCM/nms_sampling/methanol_geom.xyz.dir/methanol_283.chk
%nproc=8
%mem=16000MB
#p B2PLYPD3/Def2QZVP 

methanol

0 1
C  -5.182356  -1.253686   0.905072
O  -3.771429  -1.124634   0.856965
H  -5.472422  -2.228629   0.563496
H  -5.676363  -0.453203   0.353779
H  -5.441632  -1.174046   2.023492
H  -3.450109  -1.193362   0.035887
