%chk=/home/boittier/MDCM/nms_sampling/methanol_geom.xyz.dir/methanol_966.chk
%nproc=8
%mem=16000MB
#p B2PLYPD3/Def2QZVP 

methanol

0 1
C  -5.177152  -1.250709   0.910988
O  -3.772259  -1.125848   0.867355
H  -5.500781  -2.197194   0.571637
H  -5.667925  -0.521964   0.341648
H  -5.459297  -1.163000   1.960541
H  -3.460957  -1.183036  -0.137812
