%chk=/home/boittier/MDCM/nms_sampling/methanol_geom.xyz.dir/methanol_2312.chk
%nproc=8
%mem=16000MB
#p B2PLYPD3/Def2QZVP 

methanol

0 1
C  -5.197280  -1.255751   0.913439
O  -3.759934  -1.124754   0.875734
H  -5.481108  -2.207484   0.566700
H  -5.706501  -0.522577   0.366581
H  -5.424566  -1.129813   1.873423
H  -3.439623  -1.163446  -0.234027
