%chk=/home/boittier/MDCM/nms_sampling/methanol_geom.xyz.dir/methanol_2783.chk
%nproc=8
%mem=16000MB
#p B2PLYPD3/Def2QZVP 

methanol

0 1
C  -5.182465  -1.254990   0.914816
O  -3.780286  -1.131883   0.892564
H  -5.559682  -2.089244   0.599009
H  -5.530177  -0.586880   0.459228
H  -5.411473  -1.118419   1.807946
H  -3.395489  -1.125106  -0.583799
