%chk=/home/boittier/MDCM/nms_sampling/methanol_geom.xyz.dir/methanol_2806.chk
%nproc=8
%mem=16000MB
#p B2PLYPD3/Def2QZVP 

methanol

0 1
C  -5.157556  -1.236985   0.902725
O  -3.786311  -1.129369   0.836437
H  -5.364186  -2.449838   0.498149
H  -5.800826  -0.411768   0.334558
H  -5.505981  -1.103125   2.079681
H  -3.432331  -1.200384   0.429845

