%chk=/home/boittier/MDCM/nms_sampling/methanol_geom.xyz.dir/methanol_2823.chk
%nproc=8
%mem=16000MB
#p B2PLYPD3/Def2QZVP 

methanol

0 1
C  -5.189435  -1.252150   0.899166
O  -3.777354  -1.128389   0.899530
H  -5.384258  -2.043472   0.602179
H  -5.618181  -0.615115   0.409119
H  -5.452597  -1.142314   1.868709
H  -3.409325  -1.205814  -0.532819
