%chk=/home/boittier/MDCM/nms_sampling/methanol_geom.xyz.dir/methanol_374.chk
%nproc=8
%mem=16000MB
#p B2PLYPD3/Def2QZVP 

methanol

0 1
C  -5.176953  -1.257676   0.917146
O  -3.763074  -1.120465   0.864410
H  -5.547247  -2.197141   0.572780
H  -5.657098  -0.477413   0.343417
H  -5.510906  -1.170407   1.932199
H  -3.519759  -1.227504  -0.134633

