%chk=/home/boittier/MDCM/nms_sampling/methanol_geom.xyz.dir/methanol_2594.chk
%nproc=8
%mem=16000MB
#p B2PLYPD3/Def2QZVP 

methanol

0 1
C  -5.217279  -1.271147   0.904020
O  -3.744451  -1.117160   0.834012
H  -5.421882  -2.355570   0.598743
H  -5.786831  -0.279564   0.270102
H  -5.432901  -1.107005   2.070551
H  -3.421436  -1.225645   0.429663

