%chk=/home/boittier/MDCM/nms_sampling/methanol_geom.xyz.dir/methanol_1045.chk
%nproc=8
%mem=16000MB
#p B2PLYPD3/Def2QZVP 

methanol

0 1
C  -5.185091  -1.256223   0.913336
O  -3.766946  -1.126074   0.872389
H  -5.488962  -2.184476   0.580143
H  -5.687238  -0.499149   0.344992
H  -5.456534  -1.147225   1.901842
H  -3.445866  -1.168769  -0.199121

