%chk=/home/boittier/MDCM/nms_sampling/methanol_geom.xyz.dir/methanol_2034.chk
%nproc=8
%mem=16000MB
#p B2PLYPD3/Def2QZVP 

methanol

0 1
C  -5.191613  -1.259275   0.910933
O  -3.761350  -1.119211   0.884636
H  -5.495780  -2.185010   0.595066
H  -5.749951  -0.561622   0.360099
H  -5.375061  -1.140018   1.841458
H  -3.476699  -1.180621  -0.340369

