%chk=/home/boittier/MDCM/nms_sampling/methanol_geom.xyz.dir/methanol_3039.chk
%nproc=8
%mem=16000MB
#p B2PLYPD3/Def2QZVP 

methanol

0 1
C  -5.175757  -1.246112   0.920739
O  -3.766900  -1.131429   0.825755
H  -5.487134  -2.261425   0.484762
H  -5.636814  -0.353493   0.243882
H  -5.594373  -1.234266   2.155228
H  -3.462192  -1.190108   0.414296
