%chk=/home/boittier/MDCM/nms_sampling/methanol_geom.xyz.dir/methanol_3317.chk
%nproc=8
%mem=16000MB
#p B2PLYPD3/Def2QZVP 

methanol

0 1
C  -5.152353  -1.266963   0.908663
O  -3.774784  -1.117678   0.900829
H  -5.470405  -2.042164   0.589419
H  -5.703232  -0.538542   0.425799
H  -5.528729  -1.189824   1.774075
H  -3.626176  -1.240291  -0.570967
