%chk=/home/boittier/MDCM/nms_sampling/methanol_geom.xyz.dir/methanol_1279.chk
%nproc=8
%mem=16000MB
#p B2PLYPD3/Def2QZVP 

methanol

0 1
C  -5.178442  -1.256438   0.911368
O  -3.764053  -1.117657   0.864131
H  -5.498194  -2.214228   0.514458
H  -5.667476  -0.535112   0.376122
H  -5.457798  -1.148066   1.985378
H  -3.584129  -1.227874  -0.092772

