%chk=/home/boittier/MDCM/nms_sampling/methanol_geom.xyz.dir/methanol_1913.chk
%nproc=8
%mem=16000MB
#p B2PLYPD3/Def2QZVP 

methanol

0 1
C  -5.195066  -1.250022   0.922432
O  -3.759675  -1.124496   0.869111
H  -5.547002  -2.253772   0.565794
H  -5.653417  -0.518221   0.365137
H  -5.426436  -1.152598   1.858816
H  -3.456913  -1.167890  -0.212618
