%chk=/home/boittier/MDCM/nms_sampling/methanol_geom.xyz.dir/methanol_1796.chk
%nproc=8
%mem=16000MB
#p B2PLYPD3/Def2QZVP 

methanol

0 1
C  -5.175064  -1.259814   0.921471
O  -3.766045  -1.119167   0.874252
H  -5.524471  -2.188044   0.604934
H  -5.649850  -0.485149   0.336558
H  -5.495474  -1.157630   1.836769
H  -3.540579  -1.236340  -0.274018
