%chk=/home/boittier/MDCM/nms_sampling/methanol_geom.xyz.dir/methanol_565.chk
%nproc=8
%mem=16000MB
#p B2PLYPD3/Def2QZVP 

methanol

0 1
C  -5.178207  -1.260486   0.915890
O  -3.769856  -1.121679   0.849192
H  -5.502365  -2.251625   0.542216
H  -5.650991  -0.414553   0.329342
H  -5.444199  -1.154567   2.008344
H  -3.514868  -1.197242   0.097420
