%chk=/home/boittier/MDCM/nms_sampling/methanol_geom.xyz.dir/methanol_2440.chk
%nproc=8
%mem=16000MB
#p B2PLYPD3/Def2QZVP 

methanol

0 1
C  -5.222730  -1.273772   0.906792
O  -3.743748  -1.120337   0.898134
H  -5.411933  -2.043536   0.635549
H  -5.733852  -0.510424   0.344225
H  -5.375937  -1.179369   1.794001
H  -3.480068  -1.154926  -0.490332
