%chk=/home/boittier/MDCM/nms_sampling/methanol_geom.xyz.dir/methanol_1458.chk
%nproc=8
%mem=16000MB
#p B2PLYPD3/Def2QZVP 

methanol

0 1
C  -5.178205  -1.251981   0.918068
O  -3.764699  -1.125440   0.868905
H  -5.621695  -2.194196   0.536446
H  -5.696576  -0.552499   0.375380
H  -5.453767  -1.159140   1.930504
H  -3.425339  -1.152333  -0.214864
