%chk=/home/boittier/MDCM/nms_sampling/methanol_geom.xyz.dir/methanol_1664.chk
%nproc=8
%mem=16000MB
#p B2PLYPD3/Def2QZVP 

methanol

0 1
C  -5.178826  -1.253195   0.913879
O  -3.764579  -1.121438   0.843041
H  -5.544091  -2.343921   0.523710
H  -5.790992  -0.390798   0.337928
H  -5.442691  -1.176397   2.011276
H  -3.416025  -1.194595   0.230918
