%chk=/home/boittier/MDCM/nms_sampling/methanol_geom.xyz.dir/methanol_2500.chk
%nproc=8
%mem=16000MB
#p B2PLYPD3/Def2QZVP 

methanol

0 1
C  -5.177702  -1.251021   0.926505
O  -3.768183  -1.116370   0.881105
H  -5.545425  -2.191833   0.553837
H  -5.563846  -0.642688   0.367303
H  -5.458312  -1.104296   1.835399
H  -3.590554  -1.265536  -0.427625

