%chk=/home/boittier/MDCM/nms_sampling/methanol_geom.xyz.dir/methanol_1713.chk
%nproc=8
%mem=16000MB
#p B2PLYPD3/Def2QZVP 

methanol

0 1
C  -5.182942  -1.259518   0.917850
O  -3.771474  -1.127412   0.842621
H  -5.547618  -2.250571   0.546462
H  -5.649289  -0.404011   0.299443
H  -5.444723  -1.127764   2.050334
H  -3.388974  -1.158776   0.164244
