%chk=/home/boittier/MDCM/nms_sampling/methanol_geom.xyz.dir/methanol_1528.chk
%nproc=8
%mem=16000MB
#p B2PLYPD3/Def2QZVP 

methanol

0 1
C  -5.197728  -1.260825   0.916987
O  -3.757497  -1.118693   0.872170
H  -5.557050  -2.153412   0.595098
H  -5.607575  -0.516629   0.354169
H  -5.434757  -1.164268   1.907744
H  -3.484553  -1.225905  -0.268729

