%chk=/home/boittier/MDCM/nms_sampling/methanol_geom.xyz.dir/methanol_222.chk
%nproc=8
%mem=16000MB
#p B2PLYPD3/Def2QZVP 

methanol

0 1
C  -5.177206  -1.265395   0.910160
O  -3.766724  -1.121523   0.853282
H  -5.497472  -2.210585   0.541888
H  -5.730694  -0.414062   0.320750
H  -5.455716  -1.156256   2.023913
H  -3.486820  -1.185828   0.089398

