%chk=/home/boittier/MDCM/nms_sampling/methanol_geom.xyz.dir/methanol_2299.chk
%nproc=8
%mem=16000MB
#p B2PLYPD3/Def2QZVP 

methanol

0 1
C  -5.186306  -1.250754   0.917357
O  -3.761367  -1.124845   0.842703
H  -5.528675  -2.286523   0.505419
H  -5.634893  -0.413324   0.357704
H  -5.530385  -1.164665   2.036985
H  -3.461078  -1.218367   0.166267
