%chk=/home/boittier/MDCM/nms_sampling/methanol_geom.xyz.dir/methanol_495.chk
%nproc=8
%mem=16000MB
#p B2PLYPD3/Def2QZVP 

methanol

0 1
C  -5.178308  -1.254412   0.920937
O  -3.764008  -1.123180   0.863213
H  -5.525891  -2.220656   0.555075
H  -5.664570  -0.460545   0.342463
H  -5.524953  -1.167867   1.905313
H  -3.489070  -1.218799  -0.113108
