%chk=/home/boittier/MDCM/nms_sampling/methanol_geom.xyz.dir/methanol_810.chk
%nproc=8
%mem=16000MB
#p B2PLYPD3/Def2QZVP 

methanol

0 1
C  -5.189771  -1.250341   0.916156
O  -3.764503  -1.124134   0.855295
H  -5.493867  -2.273337   0.535648
H  -5.666285  -0.453815   0.353146
H  -5.448468  -1.172057   1.964280
H  -3.458321  -1.195757   0.022249

