%chk=/home/boittier/MDCM/nms_sampling/methanol_geom.xyz.dir/methanol_947.chk
%nproc=8
%mem=16000MB
#p B2PLYPD3/Def2QZVP 

methanol

0 1
C  -5.178597  -1.256765   0.910475
O  -3.769031  -1.123409   0.855397
H  -5.489732  -2.258431   0.565404
H  -5.734763  -0.414290   0.333036
H  -5.453837  -1.170465   1.977673
H  -3.443064  -1.191761   0.064700

