%chk=/home/boittier/MDCM/nms_sampling/methanol_geom.xyz.dir/methanol_2699.chk
%nproc=8
%mem=16000MB
#p B2PLYPD3/Def2QZVP 

methanol

0 1
C  -5.181170  -1.256667   0.888844
O  -3.764313  -1.124196   0.848252
H  -5.552249  -2.266102   0.470724
H  -5.831759  -0.460160   0.455538
H  -5.461219  -1.119354   2.157039
H  -3.326123  -1.177311   0.224558
