%chk=/home/boittier/MDCM/nms_sampling/methanol_geom.xyz.dir/methanol_1233.chk
%nproc=8
%mem=16000MB
#p B2PLYPD3/Def2QZVP 

methanol

0 1
C  -5.179406  -1.247371   0.915832
O  -3.770501  -1.126727   0.869778
H  -5.558242  -2.219299   0.565730
H  -5.604808  -0.568038   0.384404
H  -5.457831  -1.130271   1.925535
H  -3.473572  -1.170562  -0.234665

