%chk=/home/boittier/MDCM/nms_sampling/methanol_geom.xyz.dir/methanol_225.chk
%nproc=8
%mem=16000MB
#p B2PLYPD3/Def2QZVP 

methanol

0 1
C  -5.170579  -1.252436   0.913605
O  -3.772575  -1.122662   0.872626
H  -5.506547  -2.213719   0.573640
H  -5.689933  -0.512123   0.369175
H  -5.477584  -1.156588   1.888664
H  -3.487780  -1.212756  -0.209440

