%chk=/home/boittier/MDCM/nms_sampling/methanol_geom.xyz.dir/methanol_208.chk
%nproc=8
%mem=16000MB
#p B2PLYPD3/Def2QZVP 

methanol

0 1
C  -5.180309  -1.253995   0.917920
O  -3.770521  -1.123908   0.853318
H  -5.520408  -2.234073   0.533231
H  -5.658429  -0.461012   0.321622
H  -5.445027  -1.168654   1.998536
H  -3.455552  -1.193571   0.030741
