%chk=/home/boittier/MDCM/nms_sampling/methanol_geom.xyz.dir/methanol_3351.chk
%nproc=8
%mem=16000MB
#p B2PLYPD3/Def2QZVP 

methanol

0 1
C  -5.141794  -1.267439   0.895234
O  -3.784637  -1.117743   0.898467
H  -5.526612  -2.008548   0.640283
H  -5.651512  -0.545366   0.461836
H  -5.548706  -1.177170   1.869777
H  -3.568721  -1.273433  -0.557333

