%chk=/home/boittier/MDCM/nms_sampling/methanol_geom.xyz.dir/methanol_3138.chk
%nproc=8
%mem=16000MB
#p B2PLYPD3/Def2QZVP 

methanol

0 1
C  -5.180443  -1.244441   0.927315
O  -3.759993  -1.133706   0.866001
H  -5.539137  -2.201545   0.575984
H  -5.725454  -0.467798   0.265583
H  -5.563749  -1.226131   1.870539
H  -3.408194  -1.128758  -0.144598

