%chk=/home/boittier/MDCM/nms_sampling/methanol_geom.xyz.dir/methanol_385.chk
%nproc=8
%mem=16000MB
#p B2PLYPD3/Def2QZVP 

methanol

0 1
C  -5.188588  -1.257130   0.917425
O  -3.758769  -1.123231   0.850715
H  -5.554975  -2.242849   0.546510
H  -5.677372  -0.433167   0.323664
H  -5.476804  -1.171205   2.002308
H  -3.458331  -1.187936   0.061357
