%chk=/home/boittier/MDCM/nms_sampling/methanol_geom.xyz.dir/methanol_3161.chk
%nproc=8
%mem=16000MB
#p B2PLYPD3/Def2QZVP 

methanol

0 1
C  -5.179750  -1.269519   0.896275
O  -3.777026  -1.123033   0.847742
H  -5.417872  -2.231602   0.629068
H  -5.698201  -0.404552   0.265923
H  -5.369994  -1.100278   2.117834
H  -3.492651  -1.155323   0.216498

