%chk=/home/boittier/MDCM/nms_sampling/methanol_geom.xyz.dir/methanol_1451.chk
%nproc=8
%mem=16000MB
#p B2PLYPD3/Def2QZVP 

methanol

0 1
C  -5.166312  -1.256496   0.907863
O  -3.772664  -1.119331   0.872195
H  -5.507428  -2.162293   0.594090
H  -5.685403  -0.521784   0.342322
H  -5.472635  -1.186485   1.951192
H  -3.542011  -1.230807  -0.194043

