%chk=/home/boittier/MDCM/nms_sampling/methanol_geom.xyz.dir/methanol_2607.chk
%nproc=8
%mem=16000MB
#p B2PLYPD3/Def2QZVP 

methanol

0 1
C  -5.178006  -1.261286   0.926157
O  -3.777888  -1.127071   0.889161
H  -5.624092  -2.062374   0.555049
H  -5.558532  -0.602679   0.410764
H  -5.386343  -1.124487   1.811516
H  -3.417689  -1.133015  -0.576279

