%chk=/home/boittier/MDCM/nms_sampling/methanol_geom.xyz.dir/methanol_2430.chk
%nproc=8
%mem=16000MB
#p B2PLYPD3/Def2QZVP 

methanol

0 1
C  -5.164015  -1.252163   0.928376
O  -3.782399  -1.118686   0.878819
H  -5.578581  -2.147472   0.578745
H  -5.522978  -0.655956   0.319087
H  -5.373818  -1.143102   1.876168
H  -3.611832  -1.206844  -0.432462
