%chk=/home/boittier/MDCM/nms_sampling/methanol_geom.xyz.dir/methanol_1551.chk
%nproc=8
%mem=16000MB
#p B2PLYPD3/Def2QZVP 

methanol

0 1
C  -5.167305  -1.256648   0.911162
O  -3.768734  -1.117608   0.877792
H  -5.512577  -2.217393   0.559951
H  -5.748281  -0.539826   0.389948
H  -5.467047  -1.138303   1.869637
H  -3.535729  -1.229294  -0.253411
