%chk=/home/boittier/MDCM/nms_sampling/methanol_geom.xyz.dir/methanol_2479.chk
%nproc=8
%mem=16000MB
#p B2PLYPD3/Def2QZVP 

methanol

0 1
C  -5.183095  -1.242984   0.915892
O  -3.777803  -1.126424   0.827169
H  -5.586806  -2.391230   0.513002
H  -5.677514  -0.435469   0.310790
H  -5.352741  -1.147302   2.133565
H  -3.324362  -1.164102   0.379198

