%chk=/home/boittier/MDCM/nms_sampling/methanol_geom.xyz.dir/methanol_1145.chk
%nproc=8
%mem=16000MB
#p B2PLYPD3/Def2QZVP 

methanol

0 1
C  -5.184613  -1.252403   0.917008
O  -3.760885  -1.124824   0.862827
H  -5.548320  -2.209897   0.558102
H  -5.680602  -0.493588   0.334587
H  -5.486255  -1.180903   1.949884
H  -3.465631  -1.180174  -0.102507

