%chk=/home/boittier/MDCM/nms_sampling/methanol_geom.xyz.dir/methanol_2511.chk
%nproc=8
%mem=16000MB
#p B2PLYPD3/Def2QZVP 

methanol

0 1
C  -5.183293  -1.254486   0.906356
O  -3.780394  -1.133678   0.843763
H  -5.330932  -2.312319   0.577358
H  -5.658648  -0.329057   0.307346
H  -5.464687  -1.116927   2.024416
H  -3.428195  -1.142100   0.272237
