%chk=/home/boittier/MDCM/nms_sampling/methanol_geom.xyz.dir/methanol_118.chk
%nproc=8
%mem=16000MB
#p B2PLYPD3/Def2QZVP 

methanol

0 1
C  -5.172488  -1.249949   0.915756
O  -3.773998  -1.122841   0.862497
H  -5.536436  -2.242896   0.555855
H  -5.631486  -0.520162   0.364232
H  -5.454895  -1.147030   1.952644
H  -3.496776  -1.208620  -0.111552
