%chk=/home/boittier/MDCM/nms_sampling/methanol_geom.xyz.dir/methanol_3187.chk
%nproc=8
%mem=16000MB
#p B2PLYPD3/Def2QZVP 

methanol

0 1
C  -5.160792  -1.258494   0.897580
O  -3.782873  -1.115919   0.891763
H  -5.452725  -2.129089   0.550529
H  -5.682485  -0.640789   0.455326
H  -5.371989  -1.130766   1.910359
H  -3.609669  -1.222299  -0.422889
