%chk=/home/boittier/MDCM/nms_sampling/methanol_geom.xyz.dir/methanol_1221.chk
%nproc=8
%mem=16000MB
#p B2PLYPD3/Def2QZVP 

methanol

0 1
C  -5.191547  -1.263188   0.916776
O  -3.760356  -1.122283   0.867274
H  -5.553381  -2.149804   0.593331
H  -5.643321  -0.494215   0.315242
H  -5.430419  -1.162040   1.943461
H  -3.478799  -1.173264  -0.182769

