%chk=/home/boittier/MDCM/nms_sampling/methanol_geom.xyz.dir/methanol_394.chk
%nproc=8
%mem=16000MB
#p B2PLYPD3/Def2QZVP 

methanol

0 1
C  -5.189526  -1.256423   0.912771
O  -3.762651  -1.123752   0.872646
H  -5.471909  -2.186121   0.567849
H  -5.688092  -0.491387   0.358747
H  -5.477805  -1.153375   1.897622
H  -3.458375  -1.202756  -0.193628
