%chk=/home/boittier/MDCM/nms_sampling/methanol_geom.xyz.dir/methanol_3182.chk
%nproc=8
%mem=16000MB
#p B2PLYPD3/Def2QZVP 

methanol

0 1
C  -5.158071  -1.250706   0.931642
O  -3.781965  -1.127583   0.887170
H  -5.614471  -2.154941   0.558677
H  -5.595531  -0.519838   0.447432
H  -5.529354  -1.160282   1.709389
H  -3.415408  -1.205598  -0.538796

