%chk=/home/boittier/MDCM/nms_sampling/methanol_geom.xyz.dir/methanol_1986.chk
%nproc=8
%mem=16000MB
#p B2PLYPD3/Def2QZVP 

methanol

0 1
C  -5.165014  -1.261445   0.926718
O  -3.767687  -1.119979   0.844654
H  -5.531071  -2.266861   0.525329
H  -5.675416  -0.378731   0.290038
H  -5.529180  -1.166518   1.973109
H  -3.562209  -1.226211   0.136202

