%chk=/home/boittier/MDCM/nms_sampling/methanol_geom.xyz.dir/methanol_132.chk
%nproc=8
%mem=16000MB
#p B2PLYPD3/Def2QZVP 

methanol

0 1
C  -5.170637  -1.255478   0.908534
O  -3.769417  -1.119651   0.856308
H  -5.496061  -2.264032   0.555865
H  -5.729708  -0.445962   0.349135
H  -5.466756  -1.175536   1.992014
H  -3.517958  -1.221931   0.050992
