%chk=/home/boittier/MDCM/nms_sampling/methanol_geom.xyz.dir/methanol_2198.chk
%nproc=8
%mem=16000MB
#p B2PLYPD3/Def2QZVP 

methanol

0 1
C  -5.183831  -1.268116   0.908514
O  -3.765670  -1.120239   0.874283
H  -5.526736  -2.109459   0.586955
H  -5.707577  -0.500411   0.339423
H  -5.390881  -1.176003   1.947749
H  -3.484446  -1.167731  -0.223378
