%chk=/home/boittier/MDCM/nms_sampling/methanol_geom.xyz.dir/methanol_2486.chk
%nproc=8
%mem=16000MB
#p B2PLYPD3/Def2QZVP 

methanol

0 1
C  -5.162939  -1.250379   0.891064
O  -3.767123  -1.119605   0.856774
H  -5.464060  -2.206146   0.608408
H  -5.752431  -0.479730   0.310636
H  -5.547328  -1.232582   2.117240
H  -3.569365  -1.252904   0.104745

