%chk=/home/boittier/MDCM/nms_sampling/methanol_geom.xyz.dir/methanol_2448.chk
%nproc=8
%mem=16000MB
#p B2PLYPD3/Def2QZVP 

methanol

0 1
C  -5.163406  -1.254393   0.901228
O  -3.760077  -1.118889   0.883733
H  -5.559321  -2.154206   0.538355
H  -5.681518  -0.576372   0.502539
H  -5.566512  -1.177004   1.909883
H  -3.633887  -1.227864  -0.365446
