%chk=/home/boittier/MDCM/nms_sampling/methanol_geom.xyz.dir/methanol_1496.chk
%nproc=8
%mem=16000MB
#p B2PLYPD3/Def2QZVP 

methanol

0 1
C  -5.170319  -1.256117   0.910691
O  -3.776917  -1.123359   0.875471
H  -5.447637  -2.194263   0.619016
H  -5.659470  -0.491858   0.344982
H  -5.481225  -1.136607   1.877004
H  -3.505461  -1.219606  -0.230447
