%chk=/home/boittier/MDCM/nms_sampling/methanol_geom.xyz.dir/methanol_365.chk
%nproc=8
%mem=16000MB
#p B2PLYPD3/Def2QZVP 

methanol

0 1
C  -5.169348  -1.258608   0.914836
O  -3.772060  -1.121831   0.866667
H  -5.517841  -2.172912   0.568652
H  -5.657158  -0.496052   0.334226
H  -5.477432  -1.163504   1.947757
H  -3.527542  -1.206397  -0.148508

