%chk=/home/boittier/MDCM/nms_sampling/methanol_geom.xyz.dir/methanol_1736.chk
%nproc=8
%mem=16000MB
#p B2PLYPD3/Def2QZVP 

methanol

0 1
C  -5.161649  -1.255939   0.904442
O  -3.772593  -1.118508   0.853637
H  -5.511934  -2.231358   0.502994
H  -5.744436  -0.477132   0.367569
H  -5.457565  -1.194275   2.069058
H  -3.549988  -1.216697   0.095949

