%chk=/home/boittier/MDCM/nms_sampling/methanol_geom.xyz.dir/methanol_2660.chk
%nproc=8
%mem=16000MB
#p B2PLYPD3/Def2QZVP 

methanol

0 1
C  -5.168603  -1.265913   0.888078
O  -3.772603  -1.118093   0.896116
H  -5.555408  -2.088890   0.676227
H  -5.745537  -0.627003   0.414760
H  -5.369667  -1.126437   1.925411
H  -3.512873  -1.167397  -0.480994

