%chk=/home/boittier/MDCM/nms_sampling/methanol_geom.xyz.dir/methanol_1569.chk
%nproc=8
%mem=16000MB
#p B2PLYPD3/Def2QZVP 

methanol

0 1
C  -5.191845  -1.262800   0.906987
O  -3.755920  -1.122687   0.852674
H  -5.479050  -2.247828   0.552295
H  -5.768025  -0.368166   0.345924
H  -5.497493  -1.165315   1.999066
H  -3.427463  -1.199219   0.129382

