%chk=/home/boittier/MDCM/nms_sampling/methanol_geom.xyz.dir/methanol_129.chk
%nproc=8
%mem=16000MB
#p B2PLYPD3/Def2QZVP 

methanol

0 1
C  -5.178558  -1.250523   0.917772
O  -3.763204  -1.123531   0.849084
H  -5.515460  -2.293141   0.507504
H  -5.695099  -0.431815   0.352178
H  -5.500912  -1.181464   1.989193
H  -3.504649  -1.198907   0.108679

