%chk=/home/boittier/MDCM/nms_sampling/methanol_geom.xyz.dir/methanol_2688.chk
%nproc=8
%mem=16000MB
#p B2PLYPD3/Def2QZVP 

methanol

0 1
C  -5.208529  -1.269540   0.933821
O  -3.750514  -1.110190   0.891006
H  -5.576659  -2.140463   0.537170
H  -5.698616  -0.551390   0.383425
H  -5.313180  -1.165508   1.699257
H  -3.485251  -1.229897  -0.535275

