%chk=/home/boittier/MDCM/nms_sampling/methanol_geom.xyz.dir/methanol_568.chk
%nproc=8
%mem=16000MB
#p B2PLYPD3/Def2QZVP 

methanol

0 1
C  -5.180630  -1.254412   0.912888
O  -3.765845  -1.122245   0.856197
H  -5.483380  -2.230179   0.534286
H  -5.669357  -0.470650   0.334782
H  -5.493382  -1.157756   2.004746
H  -3.504234  -1.221303   0.022193

