%chk=/home/boittier/MDCM/nms_sampling/methanol_geom.xyz.dir/methanol_5.chk
%nproc=8
%mem=16000MB
#p B2PLYPD3/Def2QZVP 

methanol

0 1
C  -5.179865  -1.254092   0.909847
O  -3.762663  -1.118485   0.868238
H  -5.502757  -2.241883   0.573925
H  -5.726235  -0.495141   0.366654
H  -5.462870  -1.174997   1.920335
H  -3.520624  -1.228953  -0.122663
