%chk=/home/boittier/MDCM/nms_sampling/methanol_geom.xyz.dir/methanol_3376.chk
%nproc=8
%mem=16000MB
#p B2PLYPD3/Def2QZVP 

methanol

0 1
C  -5.163665  -1.248512   0.916886
O  -3.783208  -1.118045   0.828947
H  -5.515138  -2.393304   0.512141
H  -5.612487  -0.455514   0.303983
H  -5.336916  -1.157353   2.124010
H  -3.616702  -1.196508   0.355183

