%chk=/home/boittier/MDCM/nms_sampling/methanol_geom.xyz.dir/methanol_2597.chk
%nproc=8
%mem=16000MB
#p B2PLYPD3/Def2QZVP 

methanol

0 1
C  -5.194584  -1.268720   0.916301
O  -3.758762  -1.117948   0.885189
H  -5.429517  -2.125719   0.632827
H  -5.536880  -0.469505   0.391711
H  -5.488931  -1.141901   1.787457
H  -3.639126  -1.245957  -0.423517

