%chk=/home/boittier/MDCM/nms_sampling/methanol_geom.xyz.dir/methanol_2260.chk
%nproc=8
%mem=16000MB
#p B2PLYPD3/Def2QZVP 

methanol

0 1
C  -5.185945  -1.243558   0.924184
O  -3.765277  -1.124672   0.849548
H  -5.465697  -2.312171   0.466385
H  -5.644888  -0.469875   0.350263
H  -5.505025  -1.155476   1.968234
H  -3.487312  -1.226551   0.088441

