%chk=/home/boittier/MDCM/nms_sampling/methanol_geom.xyz.dir/methanol_1485.chk
%nproc=8
%mem=16000MB
#p B2PLYPD3/Def2QZVP 

methanol

0 1
C  -5.180297  -1.265386   0.918661
O  -3.764913  -1.117922   0.878598
H  -5.535627  -2.137891   0.564883
H  -5.736529  -0.472521   0.360065
H  -5.425296  -1.199008   1.835368
H  -3.467097  -1.212207  -0.295707
