%chk=/home/boittier/MDCM/nms_sampling/methanol_geom.xyz.dir/methanol_3179.chk
%nproc=8
%mem=16000MB
#p B2PLYPD3/Def2QZVP 

methanol

0 1
C  -5.184916  -1.263265   0.936588
O  -3.749292  -1.120440   0.821440
H  -5.510313  -2.325730   0.490616
H  -5.721121  -0.265621   0.184723
H  -5.540170  -1.225629   2.042999
H  -3.580629  -1.197539   0.468573

