%chk=/home/boittier/MDCM/nms_sampling/methanol_geom.xyz.dir/methanol_1409.chk
%nproc=8
%mem=16000MB
#p B2PLYPD3/Def2QZVP 

methanol

0 1
C  -5.171997  -1.268743   0.903313
O  -3.767126  -1.118281   0.869192
H  -5.564183  -2.145457   0.616983
H  -5.747626  -0.464729   0.345498
H  -5.442531  -1.167801   1.974981
H  -3.470674  -1.201494  -0.140072

