%chk=/home/boittier/MDCM/nms_sampling/methanol_geom.xyz.dir/methanol_1353.chk
%nproc=8
%mem=16000MB
#p B2PLYPD3/Def2QZVP 

methanol

0 1
C  -5.194761  -1.262204   0.910158
O  -3.755595  -1.117779   0.870765
H  -5.554925  -2.181766   0.592207
H  -5.686311  -0.528759   0.353357
H  -5.394300  -1.159780   1.944561
H  -3.513842  -1.187585  -0.199307

