%chk=/home/boittier/MDCM/nms_sampling/methanol_geom.xyz.dir/methanol_2297.chk
%nproc=8
%mem=16000MB
#p B2PLYPD3/Def2QZVP 

methanol

0 1
C  -5.180852  -1.243977   0.917293
O  -3.764742  -1.125729   0.840395
H  -5.485732  -2.300292   0.531957
H  -5.663320  -0.434035   0.275277
H  -5.523996  -1.199482   2.065293
H  -3.492413  -1.213036   0.229767

