%chk=/home/boittier/MDCM/nms_sampling/methanol_geom.xyz.dir/methanol_790.chk
%nproc=8
%mem=16000MB
#p B2PLYPD3/Def2QZVP 

methanol

0 1
C  -5.171840  -1.250489   0.919958
O  -3.773589  -1.123487   0.865617
H  -5.525938  -2.226844   0.539892
H  -5.646575  -0.489623   0.374480
H  -5.469025  -1.179150   1.900162
H  -3.488764  -1.208347  -0.152542

