%chk=/home/boittier/MDCM/nms_sampling/methanol_geom.xyz.dir/methanol_1389.chk
%nproc=8
%mem=16000MB
#p B2PLYPD3/Def2QZVP 

methanol

0 1
C  -5.180303  -1.262012   0.919176
O  -3.762956  -1.120916   0.876388
H  -5.627974  -2.120447   0.615215
H  -5.659666  -0.514709   0.341459
H  -5.456591  -1.186591   1.877485
H  -3.451159  -1.194124  -0.340457
