%chk=/home/boittier/MDCM/nms_sampling/methanol_geom.xyz.dir/methanol_3235.chk
%nproc=8
%mem=16000MB
#p B2PLYPD3/Def2QZVP 

methanol

0 1
C  -5.159569  -1.242465   0.933443
O  -3.778306  -1.124563   0.819201
H  -5.544408  -2.435886   0.424257
H  -5.698407  -0.299190   0.328638
H  -5.512269  -1.216444   2.030327
H  -3.444458  -1.228782   0.481859
