%chk=/home/boittier/MDCM/nms_sampling/methanol_geom.xyz.dir/methanol_2026.chk
%nproc=8
%mem=16000MB
#p B2PLYPD3/Def2QZVP 

methanol

0 1
C  -5.199734  -1.268078   0.922971
O  -3.753299  -1.117674   0.846789
H  -5.536489  -2.275053   0.569406
H  -5.675253  -0.384507   0.285119
H  -5.415125  -1.135432   1.968647
H  -3.498751  -1.198941   0.111932
