%chk=/home/boittier/MDCM/nms_sampling/methanol_geom.xyz.dir/methanol_2399.chk
%nproc=8
%mem=16000MB
#p B2PLYPD3/Def2QZVP 

methanol

0 1
C  -5.197043  -1.261507   0.921224
O  -3.755354  -1.118785   0.876516
H  -5.577361  -2.128813   0.599236
H  -5.612463  -0.564303   0.320253
H  -5.409738  -1.166017   1.890912
H  -3.525657  -1.191896  -0.345265

