%chk=/home/boittier/MDCM/nms_sampling/methanol_geom.xyz.dir/methanol_175.chk
%nproc=8
%mem=16000MB
#p B2PLYPD3/Def2QZVP 

methanol

0 1
C  -5.188658  -1.256807   0.909960
O  -3.759309  -1.124761   0.857458
H  -5.510391  -2.216106   0.526639
H  -5.712314  -0.464189   0.354125
H  -5.484052  -1.157658   2.011256
H  -3.451244  -1.176942   0.017743

