%chk=/home/boittier/MDCM/nms_sampling/methanol_geom.xyz.dir/methanol_1252.chk
%nproc=8
%mem=16000MB
#p B2PLYPD3/Def2QZVP 

methanol

0 1
C  -5.180532  -1.248522   0.912679
O  -3.762746  -1.123786   0.876537
H  -5.491241  -2.222409   0.592715
H  -5.687095  -0.518757   0.376639
H  -5.539808  -1.154606   1.857507
H  -3.484547  -1.229335  -0.256459

