%chk=/home/boittier/MDCM/nms_sampling/methanol_geom.xyz.dir/methanol_2903.chk
%nproc=8
%mem=16000MB
#p B2PLYPD3/Def2QZVP 

methanol

0 1
C  -5.180991  -1.240809   0.927673
O  -3.778955  -1.132699   0.869845
H  -5.470076  -2.166832   0.543141
H  -5.504305  -0.544740   0.331660
H  -5.470180  -1.197745   1.889870
H  -3.490878  -1.161414  -0.266052
