%chk=/home/boittier/MDCM/nms_sampling/methanol_geom.xyz.dir/methanol_1892.chk
%nproc=8
%mem=16000MB
#p B2PLYPD3/Def2QZVP 

methanol

0 1
C  -5.194251  -1.256391   0.913709
O  -3.755625  -1.125450   0.840218
H  -5.558899  -2.253330   0.530942
H  -5.683646  -0.371443   0.330953
H  -5.500073  -1.201678   2.070722
H  -3.405552  -1.184747   0.216696
