%chk=/home/boittier/MDCM/nms_sampling/methanol_geom.xyz.dir/methanol_1169.chk
%nproc=8
%mem=16000MB
#p B2PLYPD3/Def2QZVP 

methanol

0 1
C  -5.172084  -1.258694   0.909199
O  -3.770919  -1.122201   0.870503
H  -5.518743  -2.162852   0.577988
H  -5.666907  -0.496752   0.370479
H  -5.484919  -1.161341   1.944504
H  -3.495797  -1.211390  -0.186231

