%chk=/home/boittier/MDCM/nms_sampling/methanol_geom.xyz.dir/methanol_3134.chk
%nproc=8
%mem=16000MB
#p B2PLYPD3/Def2QZVP 

methanol

0 1
C  -5.183920  -1.255724   0.926214
O  -3.772954  -1.130107   0.867591
H  -5.564916  -2.286120   0.580882
H  -5.703092  -0.470366   0.352108
H  -5.393807  -1.076842   1.812590
H  -3.339389  -1.106369  -0.185096
