%chk=/home/boittier/MDCM/nms_sampling/methanol_geom.xyz.dir/methanol_1084.chk
%nproc=8
%mem=16000MB
#p B2PLYPD3/Def2QZVP 

methanol

0 1
C  -5.193349  -1.258267   0.905652
O  -3.760136  -1.124664   0.869623
H  -5.495549  -2.180687   0.581045
H  -5.674817  -0.493939   0.377482
H  -5.461150  -1.147538   1.957526
H  -3.458947  -1.176197  -0.152783

