%chk=/home/boittier/MDCM/nms_sampling/methanol_geom.xyz.dir/methanol_346.chk
%nproc=8
%mem=16000MB
#p B2PLYPD3/Def2QZVP 

methanol

0 1
C  -5.186304  -1.250398   0.911678
O  -3.760242  -1.122723   0.856841
H  -5.499369  -2.278102   0.525108
H  -5.753902  -0.461994   0.354655
H  -5.473301  -1.176526   1.975982
H  -3.448880  -1.201563   0.046094
