%chk=/home/boittier/MDCM/nms_sampling/methanol_geom.xyz.dir/methanol_70.chk
%nproc=8
%mem=16000MB
#p B2PLYPD3/Def2QZVP 

methanol

0 1
C  -5.169697  -1.258434   0.917896
O  -3.770638  -1.121436   0.869675
H  -5.522238  -2.189917   0.558028
H  -5.669691  -0.472740   0.369239
H  -5.481908  -1.175135   1.885751
H  -3.524371  -1.209362  -0.193043

