%chk=/home/boittier/MDCM/nms_sampling/methanol_geom.xyz.dir/methanol_2153.chk
%nproc=8
%mem=16000MB
#p B2PLYPD3/Def2QZVP 

methanol

0 1
C  -5.199555  -1.268180   0.908144
O  -3.754003  -1.118237   0.878119
H  -5.504324  -2.142238   0.618157
H  -5.688712  -0.531677   0.335440
H  -5.415850  -1.116218   1.914713
H  -3.508307  -1.193455  -0.274433

