%chk=/home/boittier/MDCM/nms_sampling/methanol_geom.xyz.dir/methanol_1487.chk
%nproc=8
%mem=16000MB
#p B2PLYPD3/Def2QZVP 

methanol

0 1
C  -5.153728  -1.253436   0.923000
O  -3.776781  -1.118655   0.877945
H  -5.587748  -2.218317   0.579371
H  -5.682402  -0.528045   0.386856
H  -5.463748  -1.180216   1.803020
H  -3.557712  -1.219231  -0.342166
