%chk=/home/boittier/MDCM/nms_sampling/methanol_geom.xyz.dir/methanol_1491.chk
%nproc=8
%mem=16000MB
#p B2PLYPD3/Def2QZVP 

methanol

0 1
C  -5.168384  -1.260759   0.923308
O  -3.775151  -1.122037   0.840481
H  -5.512757  -2.313521   0.550436
H  -5.662511  -0.357495   0.293818
H  -5.443321  -1.149812   1.986798
H  -3.523563  -1.188932   0.204177

