%chk=/home/boittier/MDCM/nms_sampling/methanol_geom.xyz.dir/methanol_423.chk
%nproc=8
%mem=16000MB
#p B2PLYPD3/Def2QZVP 

methanol

0 1
C  -5.179253  -1.254439   0.916033
O  -3.769062  -1.124092   0.870423
H  -5.552071  -2.207612   0.570947
H  -5.657028  -0.523034   0.373174
H  -5.444547  -1.140043   1.903251
H  -3.462778  -1.178520  -0.218321
