%chk=/home/boittier/MDCM/nms_sampling/methanol_geom.xyz.dir/methanol_3306.chk
%nproc=8
%mem=16000MB
#p B2PLYPD3/Def2QZVP 

methanol

0 1
C  -5.189023  -1.278365   0.914569
O  -3.747150  -1.117261   0.896222
H  -5.541355  -2.063521   0.576664
H  -5.791297  -0.466760   0.423451
H  -5.499963  -1.168004   1.738028
H  -3.505071  -1.191504  -0.511289

