%chk=/home/boittier/MDCM/nms_sampling/methanol_geom.xyz.dir/methanol_900.chk
%nproc=8
%mem=16000MB
#p B2PLYPD3/Def2QZVP 

methanol

0 1
C  -5.169804  -1.252450   0.916383
O  -3.773074  -1.125406   0.866661
H  -5.520576  -2.205617   0.576677
H  -5.663679  -0.477593   0.347134
H  -5.509328  -1.167406   1.912604
H  -3.465693  -1.204228  -0.149753
