%chk=/home/boittier/MDCM/nms_sampling/methanol_geom.xyz.dir/methanol_2114.chk
%nproc=8
%mem=16000MB
#p B2PLYPD3/Def2QZVP 

methanol

0 1
C  -5.180855  -1.266900   0.923037
O  -3.769041  -1.121261   0.848405
H  -5.508964  -2.263154   0.570687
H  -5.654613  -0.378306   0.287490
H  -5.420364  -1.129266   1.957616
H  -3.508956  -1.180662   0.092281
