%chk=/home/boittier/MDCM/nms_sampling/methanol_geom.xyz.dir/methanol_1075.chk
%nproc=8
%mem=16000MB
#p B2PLYPD3/Def2QZVP 

methanol

0 1
C  -5.171892  -1.257034   0.913293
O  -3.768894  -1.122372   0.857717
H  -5.476828  -2.235809   0.556543
H  -5.730873  -0.431853   0.313230
H  -5.479566  -1.183729   1.968106
H  -3.512651  -1.198014   0.030238

