%chk=/home/boittier/MDCM/nms_sampling/methanol_geom.xyz.dir/methanol_2241.chk
%nproc=8
%mem=16000MB
#p B2PLYPD3/Def2QZVP 

methanol

0 1
C  -5.179017  -1.267097   0.923901
O  -3.770184  -1.119147   0.866812
H  -5.538042  -2.187669   0.597871
H  -5.627644  -0.452133   0.317989
H  -5.424855  -1.132101   1.872004
H  -3.507038  -1.209642  -0.191063

