%chk=/home/boittier/MDCM/nms_sampling/methanol_geom.xyz.dir/methanol_1429.chk
%nproc=8
%mem=16000MB
#p B2PLYPD3/Def2QZVP 

methanol

0 1
C  -5.160334  -1.258946   0.910904
O  -3.774235  -1.119606   0.873315
H  -5.561924  -2.168138   0.552477
H  -5.661425  -0.528086   0.414670
H  -5.478599  -1.156373   1.924419
H  -3.550500  -1.216002  -0.250402

