%chk=/home/boittier/MDCM/nms_sampling/methanol_geom.xyz.dir/methanol_432.chk
%nproc=8
%mem=16000MB
#p B2PLYPD3/Def2QZVP 

methanol

0 1
C  -5.188845  -1.260806   0.918617
O  -3.760766  -1.120443   0.848605
H  -5.513228  -2.277389   0.557847
H  -5.690333  -0.407467   0.300545
H  -5.430724  -1.157884   1.984841
H  -3.499807  -1.191277   0.112497
