%chk=/home/boittier/MDCM/nms_sampling/methanol_geom.xyz.dir/methanol_409.chk
%nproc=8
%mem=16000MB
#p B2PLYPD3/Def2QZVP 

methanol

0 1
C  -5.189060  -1.250986   0.923127
O  -3.762583  -1.121773   0.853595
H  -5.516480  -2.291053   0.523425
H  -5.679702  -0.473752   0.319317
H  -5.439072  -1.154630   1.950166
H  -3.473283  -1.204198   0.027201

