%chk=/home/boittier/MDCM/nms_sampling/methanol_geom.xyz.dir/methanol_3343.chk
%nproc=8
%mem=16000MB
#p B2PLYPD3/Def2QZVP 

methanol

0 1
C  -5.166782  -1.248890   0.927248
O  -3.788215  -1.134226   0.881605
H  -5.528882  -2.121720   0.605101
H  -5.478636  -0.539403   0.370617
H  -5.478817  -1.152750   1.805570
H  -3.463883  -1.142218  -0.466074

