%chk=/home/boittier/MDCM/nms_sampling/methanol_geom.xyz.dir/methanol_1960.chk
%nproc=8
%mem=16000MB
#p B2PLYPD3/Def2QZVP 

methanol

0 1
C  -5.168468  -1.256876   0.922355
O  -3.772729  -1.118584   0.869891
H  -5.576440  -2.210310   0.542933
H  -5.675761  -0.476858   0.396045
H  -5.436959  -1.195191   1.853052
H  -3.493638  -1.224279  -0.226434

