%chk=/home/boittier/MDCM/nms_sampling/methanol_geom.xyz.dir/methanol_1123.chk
%nproc=8
%mem=16000MB
#p B2PLYPD3/Def2QZVP 

methanol

0 1
C  -5.168775  -1.249668   0.921800
O  -3.772831  -1.124637   0.854962
H  -5.527641  -2.271170   0.496688
H  -5.678279  -0.457951   0.366447
H  -5.496124  -1.165267   1.945412
H  -3.476160  -1.202257   0.005439
