%chk=/home/boittier/MDCM/nms_sampling/methanol_geom.xyz.dir/methanol_2190.chk
%nproc=8
%mem=16000MB
#p B2PLYPD3/Def2QZVP 

methanol

0 1
C  -5.180847  -1.262649   0.915381
O  -3.768704  -1.127289   0.862759
H  -5.579646  -2.154910   0.565614
H  -5.641338  -0.440604   0.370093
H  -5.470743  -1.158445   1.954941
H  -3.402567  -1.155741  -0.129072

