%chk=/home/boittier/MDCM/nms_sampling/methanol_geom.xyz.dir/methanol_1062.chk
%nproc=8
%mem=16000MB
#p B2PLYPD3/Def2QZVP 

methanol

0 1
C  -5.173508  -1.246643   0.907968
O  -3.767942  -1.124279   0.854945
H  -5.501864  -2.277261   0.546895
H  -5.717954  -0.470280   0.354057
H  -5.501266  -1.184515   2.011834
H  -3.480337  -1.205657   0.063401
