%chk=/home/boittier/MDCM/nms_sampling/methanol_geom.xyz.dir/methanol_2371.chk
%nproc=8
%mem=16000MB
#p B2PLYPD3/Def2QZVP 

methanol

0 1
C  -5.184550  -1.252180   0.921011
O  -3.762874  -1.119272   0.871068
H  -5.537923  -2.206741   0.542780
H  -5.619116  -0.552244   0.372413
H  -5.431862  -1.178682   1.891859
H  -3.566260  -1.210538  -0.248322

