%chk=/home/boittier/MDCM/nms_sampling/methanol_geom.xyz.dir/methanol_76.chk
%nproc=8
%mem=16000MB
#p B2PLYPD3/Def2QZVP 

methanol

0 1
C  -5.184573  -1.255852   0.905593
O  -3.766637  -1.121528   0.869167
H  -5.476950  -2.178859   0.584943
H  -5.657339  -0.496434   0.367590
H  -5.456600  -1.179246   1.964307
H  -3.499962  -1.218789  -0.145842
