%chk=/home/boittier/MDCM/nms_sampling/methanol_geom.xyz.dir/methanol_6.chk
%nproc=8
%mem=16000MB
#p B2PLYPD3/Def2QZVP 

methanol

0 1
C  -5.188722  -1.259621   0.911838
O  -3.761337  -1.118970   0.851074
H  -5.486098  -2.290479   0.536349
H  -5.722301  -0.417529   0.347404
H  -5.432642  -1.146952   1.993438
H  -3.488550  -1.214012   0.118288
