%chk=/home/boittier/MDCM/nms_sampling/methanol_geom.xyz.dir/methanol_419.chk
%nproc=8
%mem=16000MB
#p B2PLYPD3/Def2QZVP 

methanol

0 1
C  -5.191559  -1.254808   0.916852
O  -3.760877  -1.124539   0.854616
H  -5.526684  -2.236904   0.517942
H  -5.659142  -0.476553   0.346587
H  -5.458568  -1.146700   1.998497
H  -3.457708  -1.178714   0.012428
