%chk=/home/boittier/MDCM/nms_sampling/methanol_geom.xyz.dir/methanol_876.chk
%nproc=8
%mem=16000MB
#p B2PLYPD3/Def2QZVP 

methanol

0 1
C  -5.179263  -1.246820   0.913577
O  -3.765999  -1.125378   0.855928
H  -5.496603  -2.279992   0.540075
H  -5.702271  -0.476782   0.340134
H  -5.483164  -1.175406   1.980633
H  -3.483211  -1.185719   0.033336

