%chk=/home/boittier/MDCM/nms_sampling/methanol_geom.xyz.dir/methanol_625.chk
%nproc=8
%mem=16000MB
#p B2PLYPD3/Def2QZVP 

methanol

0 1
C  -5.181753  -1.248836   0.914763
O  -3.765737  -1.123133   0.855049
H  -5.459648  -2.288593   0.503663
H  -5.698309  -0.462159   0.361558
H  -5.491602  -1.158119   1.971978
H  -3.492656  -1.219581   0.057657

