%chk=/home/boittier/MDCM/nms_sampling/methanol_geom.xyz.dir/methanol_1635.chk
%nproc=8
%mem=16000MB
#p B2PLYPD3/Def2QZVP 

methanol

0 1
C  -5.172445  -1.239595   0.926076
O  -3.779514  -1.128200   0.873871
H  -5.514992  -2.258893   0.553495
H  -5.610355  -0.558951   0.373887
H  -5.430346  -1.165975   1.820488
H  -3.478297  -1.168006  -0.291553

