%chk=/home/boittier/MDCM/nms_sampling/methanol_geom.xyz.dir/methanol_1502.chk
%nproc=8
%mem=16000MB
#p B2PLYPD3/Def2QZVP 

methanol

0 1
C  -5.170375  -1.257773   0.912525
O  -3.764992  -1.119051   0.852544
H  -5.484480  -2.286471   0.517605
H  -5.778012  -0.445688   0.323596
H  -5.481642  -1.147453   1.998538
H  -3.540181  -1.211883   0.121347
