%chk=/home/boittier/MDCM/nms_sampling/methanol_geom.xyz.dir/methanol_2017.chk
%nproc=8
%mem=16000MB
#p B2PLYPD3/Def2QZVP 

methanol

0 1
C  -5.164918  -1.249795   0.918136
O  -3.774304  -1.123004   0.866488
H  -5.564233  -2.182147   0.550875
H  -5.650306  -0.537048   0.340529
H  -5.485317  -1.190944   1.950281
H  -3.499019  -1.210877  -0.176432
