%chk=/home/boittier/MDCM/nms_sampling/methanol_geom.xyz.dir/methanol_1090.chk
%nproc=8
%mem=16000MB
#p B2PLYPD3/Def2QZVP 

methanol

0 1
C  -5.176812  -1.257374   0.915156
O  -3.765210  -1.120113   0.871301
H  -5.532668  -2.153097   0.563357
H  -5.655252  -0.504948   0.360250
H  -5.488273  -1.195571   1.920632
H  -3.525714  -1.226665  -0.221165

