%chk=/home/boittier/MDCM/nms_sampling/methanol_geom.xyz.dir/methanol_1250.chk
%nproc=8
%mem=16000MB
#p B2PLYPD3/Def2QZVP 

methanol

0 1
C  -5.160348  -1.252786   0.919966
O  -3.776165  -1.119617   0.840213
H  -5.526678  -2.352663   0.526710
H  -5.699019  -0.405461   0.316972
H  -5.436940  -1.174039   2.009649
H  -3.562258  -1.204649   0.224784
