%chk=/home/boittier/MDCM/nms_sampling/methanol_geom.xyz.dir/methanol_798.chk
%nproc=8
%mem=16000MB
#p B2PLYPD3/Def2QZVP 

methanol

0 1
C  -5.183847  -1.256820   0.915102
O  -3.768165  -1.125178   0.851963
H  -5.504208  -2.270628   0.556457
H  -5.682973  -0.427837   0.326397
H  -5.442019  -1.136816   1.985540
H  -3.445953  -1.170418   0.073735

