%chk=/home/boittier/MDCM/nms_sampling/methanol_geom.xyz.dir/methanol_3047.chk
%nproc=8
%mem=16000MB
#p B2PLYPD3/Def2QZVP 

methanol

0 1
C  -5.193297  -1.271015   0.911350
O  -3.747943  -1.120143   0.848334
H  -5.514638  -2.293384   0.574987
H  -5.816767  -0.305156   0.329767
H  -5.493488  -1.148889   1.958393
H  -3.454634  -1.180848   0.186919
