%chk=/home/boittier/MDCM/nms_sampling/methanol_geom.xyz.dir/methanol_826.chk
%nproc=8
%mem=16000MB
#p B2PLYPD3/Def2QZVP 

methanol

0 1
C  -5.185325  -1.251735   0.906881
O  -3.766313  -1.124353   0.871642
H  -5.487465  -2.191977   0.597087
H  -5.646150  -0.525145   0.366797
H  -5.483936  -1.149811   1.944504
H  -3.471755  -1.210192  -0.192598
