%chk=/home/boittier/MDCM/nms_sampling/methanol_geom.xyz.dir/methanol_1831.chk
%nproc=8
%mem=16000MB
#p B2PLYPD3/Def2QZVP 

methanol

0 1
C  -5.156982  -1.250495   0.907554
O  -3.778093  -1.120108   0.852246
H  -5.518202  -2.254134   0.520219
H  -5.729988  -0.496581   0.336568
H  -5.471049  -1.176972   2.065069
H  -3.514974  -1.228690   0.099710

