%chk=/home/boittier/MDCM/nms_sampling/methanol_geom.xyz.dir/methanol_2465.chk
%nproc=8
%mem=16000MB
#p B2PLYPD3/Def2QZVP 

methanol

0 1
C  -5.191488  -1.248198   0.905807
O  -3.760970  -1.116762   0.852936
H  -5.345270  -2.371514   0.514312
H  -5.744076  -0.458840   0.356440
H  -5.414872  -1.158773   1.988940
H  -3.606636  -1.240199   0.176499

