%chk=/home/boittier/MDCM/nms_sampling/methanol_geom.xyz.dir/methanol_3015.chk
%nproc=8
%mem=16000MB
#p B2PLYPD3/Def2QZVP 

methanol

0 1
C  -5.173999  -1.251839   0.906718
O  -3.772514  -1.128152   0.845147
H  -5.394563  -2.272018   0.511396
H  -5.836978  -0.298686   0.316363
H  -5.514324  -1.254751   2.022132
H  -3.366523  -1.196437   0.302413

