%chk=/home/boittier/MDCM/nms_sampling/methanol_geom.xyz.dir/methanol_2032.chk
%nproc=8
%mem=16000MB
#p B2PLYPD3/Def2QZVP 

methanol

0 1
C  -5.174333  -1.257095   0.927033
O  -3.773476  -1.122054   0.863487
H  -5.554287  -2.242830   0.525764
H  -5.678892  -0.484823   0.346444
H  -5.436359  -1.119778   1.877172
H  -3.436000  -1.201922  -0.135920
