%chk=/home/boittier/MDCM/nms_sampling/methanol_geom.xyz.dir/methanol_156.chk
%nproc=8
%mem=16000MB
#p B2PLYPD3/Def2QZVP 

methanol

0 1
C  -5.176821  -1.250106   0.908223
O  -3.774280  -1.124576   0.872084
H  -5.478656  -2.190617   0.574068
H  -5.645016  -0.521764   0.382874
H  -5.451882  -1.177055   1.934095
H  -3.485629  -1.201029  -0.198195

