%chk=/home/boittier/MDCM/nms_sampling/methanol_geom.xyz.dir/methanol_2993.chk
%nproc=8
%mem=16000MB
#p B2PLYPD3/Def2QZVP 

methanol

0 1
C  -5.174003  -1.253047   0.906784
O  -3.769432  -1.130364   0.901044
H  -5.552526  -2.043406   0.671124
H  -5.785456  -0.556214   0.345650
H  -5.511848  -1.220728   1.789477
H  -3.311514  -1.155714  -0.570051

