%chk=/home/boittier/MDCM/nms_sampling/methanol_geom.xyz.dir/methanol_1979.chk
%nproc=8
%mem=16000MB
#p B2PLYPD3/Def2QZVP 

methanol

0 1
C  -5.183267  -1.245970   0.916148
O  -3.767876  -1.121891   0.866722
H  -5.457264  -2.288407   0.532962
H  -5.658319  -0.512126   0.392595
H  -5.456970  -1.151126   1.888946
H  -3.521912  -1.225739  -0.124475
