%chk=/home/boittier/MDCM/nms_sampling/methanol_geom.xyz.dir/methanol_445.chk
%nproc=8
%mem=16000MB
#p B2PLYPD3/Def2QZVP 

methanol

0 1
C  -5.171762  -1.257888   0.909381
O  -3.769723  -1.121740   0.852768
H  -5.465184  -2.265447   0.538609
H  -5.718683  -0.409416   0.350850
H  -5.483370  -1.165111   1.999405
H  -3.522291  -1.208439   0.107377
