%chk=/home/boittier/MDCM/nms_sampling/methanol_geom.xyz.dir/methanol_2949.chk
%nproc=8
%mem=16000MB
#p B2PLYPD3/Def2QZVP 

methanol

0 1
C  -5.188132  -1.270014   0.940052
O  -3.752827  -1.117985   0.827763
H  -5.576446  -2.297327   0.483261
H  -5.706098  -0.307937   0.214300
H  -5.514491  -1.137368   2.007715
H  -3.467648  -1.229854   0.337370
