%chk=/home/boittier/MDCM/nms_sampling/methanol_geom.xyz.dir/methanol_3409.chk
%nproc=8
%mem=16000MB
#p B2PLYPD3/Def2QZVP 

methanol

0 1
C  -5.213013  -1.273932   0.916234
O  -3.746809  -1.108868   0.890385
H  -5.648902  -2.085662   0.558876
H  -5.593614  -0.638504   0.456189
H  -5.316677  -1.101307   1.850858
H  -3.523682  -1.230817  -0.568012
