%chk=/home/boittier/MDCM/nms_sampling/methanol_geom.xyz.dir/methanol_1984.chk
%nproc=8
%mem=16000MB
#p B2PLYPD3/Def2QZVP 

methanol

0 1
C  -5.193943  -1.258177   0.926871
O  -3.759533  -1.125093   0.872747
H  -5.530137  -2.152773   0.544157
H  -5.639006  -0.477555   0.349280
H  -5.503125  -1.161565   1.841622
H  -3.419180  -1.202876  -0.271792

