%chk=/home/boittier/MDCM/nms_sampling/methanol_geom.xyz.dir/methanol_3466.chk
%nproc=8
%mem=16000MB
#p B2PLYPD3/Def2QZVP 

methanol

0 1
C  -5.197480  -1.252695   0.896363
O  -3.750791  -1.131598   0.882264
H  -5.509059  -2.053465   0.598595
H  -5.659266  -0.527073   0.412988
H  -5.594136  -1.216099   1.974139
H  -3.418895  -1.166283  -0.322760

