%chk=/home/boittier/MDCM/nms_sampling/methanol_geom.xyz.dir/methanol_1701.chk
%nproc=8
%mem=16000MB
#p B2PLYPD3/Def2QZVP 

methanol

0 1
C  -5.164221  -1.256726   0.903512
O  -3.772901  -1.117115   0.849390
H  -5.494702  -2.270347   0.516086
H  -5.755646  -0.486654   0.334201
H  -5.446156  -1.141671   2.095549
H  -3.537309  -1.231713   0.169625

