%chk=/home/boittier/MDCM/nms_sampling/methanol_geom.xyz.dir/methanol_2177.chk
%nproc=8
%mem=16000MB
#p B2PLYPD3/Def2QZVP 

methanol

0 1
C  -5.180605  -1.266643   0.924309
O  -3.770148  -1.122755   0.838402
H  -5.510963  -2.304479   0.561449
H  -5.670241  -0.334855   0.266714
H  -5.423535  -1.120238   1.993755
H  -3.473320  -1.171985   0.235251
