%chk=/home/boittier/MDCM/nms_sampling/methanol_geom.xyz.dir/methanol_584.chk
%nproc=8
%mem=16000MB
#p B2PLYPD3/Def2QZVP 

methanol

0 1
C  -5.174733  -1.251709   0.917413
O  -3.769974  -1.120118   0.849169
H  -5.527193  -2.281873   0.530348
H  -5.658208  -0.470788   0.325853
H  -5.450910  -1.165343   2.015707
H  -3.520776  -1.223251   0.086690

