%chk=/home/boittier/MDCM/nms_sampling/methanol_geom.xyz.dir/methanol_1135.chk
%nproc=8
%mem=16000MB
#p B2PLYPD3/Def2QZVP 

methanol

0 1
C  -5.191576  -1.254049   0.915465
O  -3.760901  -1.124074   0.861877
H  -5.543881  -2.243886   0.547160
H  -5.660673  -0.502178   0.370839
H  -5.445387  -1.131838   1.949838
H  -3.453855  -1.175903  -0.092691

