%chk=/home/boittier/MDCM/nms_sampling/methanol_geom.xyz.dir/methanol_2125.chk
%nproc=8
%mem=16000MB
#p B2PLYPD3/Def2QZVP 

methanol

0 1
C  -5.178401  -1.270315   0.910981
O  -3.768086  -1.116395   0.883297
H  -5.516208  -2.140053   0.564285
H  -5.753929  -0.496257   0.402358
H  -5.398272  -1.138910   1.840777
H  -3.470811  -1.211193  -0.328939

