%chk=/home/boittier/MDCM/nms_sampling/methanol_geom.xyz.dir/methanol_1543.chk
%nproc=8
%mem=16000MB
#p B2PLYPD3/Def2QZVP 

methanol

0 1
C  -5.181571  -1.249145   0.919832
O  -3.763149  -1.122304   0.847305
H  -5.527970  -2.269835   0.483572
H  -5.632732  -0.478357   0.348183
H  -5.520065  -1.155500   2.031490
H  -3.504665  -1.235288   0.095954

