%chk=/home/boittier/MDCM/nms_sampling/methanol_geom.xyz.dir/methanol_2300.chk
%nproc=8
%mem=16000MB
#p B2PLYPD3/Def2QZVP 

methanol

0 1
C  -5.165826  -1.257972   0.924762
O  -3.764544  -1.118536   0.869176
H  -5.565745  -2.219444   0.542321
H  -5.687219  -0.507292   0.354444
H  -5.511424  -1.150853   1.862179
H  -3.578942  -1.220970  -0.211934

