%chk=/home/boittier/MDCM/nms_sampling/methanol_geom.xyz.dir/methanol_1376.chk
%nproc=8
%mem=16000MB
#p B2PLYPD3/Def2QZVP 

methanol

0 1
C  -5.170407  -1.257181   0.907821
O  -3.774190  -1.119122   0.861489
H  -5.433435  -2.291933   0.537545
H  -5.710848  -0.458051   0.393988
H  -5.424635  -1.130770   1.942589
H  -3.571372  -1.211261  -0.000376

