%chk=/home/boittier/MDCM/nms_sampling/methanol_geom.xyz.dir/methanol_2631.chk
%nproc=8
%mem=16000MB
#p B2PLYPD3/Def2QZVP 

methanol

0 1
C  -5.187696  -1.270855   0.911213
O  -3.748000  -1.116371   0.881227
H  -5.689122  -2.052588   0.667743
H  -5.657880  -0.521605   0.351311
H  -5.465105  -1.224197   1.907597
H  -3.529171  -1.190706  -0.419022

