%chk=/home/boittier/MDCM/nms_sampling/methanol_geom.xyz.dir/methanol_350.chk
%nproc=8
%mem=16000MB
#p B2PLYPD3/Def2QZVP 

methanol

0 1
C  -5.171022  -1.253365   0.917927
O  -3.771312  -1.124246   0.866229
H  -5.535920  -2.227952   0.558376
H  -5.676849  -0.484623   0.364594
H  -5.482361  -1.156816   1.901082
H  -3.479656  -1.191595  -0.147865

