%chk=/home/boittier/MDCM/nms_sampling/methanol_geom.xyz.dir/methanol_2629.chk
%nproc=8
%mem=16000MB
#p B2PLYPD3/Def2QZVP 

methanol

0 1
C  -5.182804  -1.256217   0.910785
O  -3.770313  -1.128962   0.841904
H  -5.491779  -2.302619   0.407479
H  -5.804540  -0.434050   0.378001
H  -5.400236  -1.107564   2.085570
H  -3.358305  -1.107175   0.281678
