%chk=/home/boittier/MDCM/nms_sampling/methanol_geom.xyz.dir/methanol_2713.chk
%nproc=8
%mem=16000MB
#p B2PLYPD3/Def2QZVP 

methanol

0 1
C  -5.185957  -1.259139   0.906633
O  -3.767108  -1.124510   0.873302
H  -5.541796  -2.204755   0.518779
H  -5.719804  -0.567006   0.430122
H  -5.376476  -1.085695   1.948232
H  -3.433962  -1.127966  -0.206854
