%chk=/home/boittier/MDCM/nms_sampling/methanol_geom.xyz.dir/methanol_1498.chk
%nproc=8
%mem=16000MB
#p B2PLYPD3/Def2QZVP 

methanol

0 1
C  -5.185293  -1.254298   0.922175
O  -3.773784  -1.129448   0.873411
H  -5.523360  -2.171051   0.585781
H  -5.598044  -0.489609   0.358830
H  -5.426135  -1.162454   1.850633
H  -3.418289  -1.144574  -0.286105

