%chk=/home/boittier/MDCM/nms_sampling/methanol_geom.xyz.dir/methanol_2648.chk
%nproc=8
%mem=16000MB
#p B2PLYPD3/Def2QZVP 

methanol

0 1
C  -5.188074  -1.277751   0.930054
O  -3.745773  -1.117948   0.870270
H  -5.669017  -2.128833   0.624355
H  -5.659770  -0.443122   0.301439
H  -5.515290  -1.132425   1.837866
H  -3.527776  -1.183327  -0.295703
