%chk=/home/boittier/MDCM/nms_sampling/methanol_geom.xyz.dir/methanol_421.chk
%nproc=8
%mem=16000MB
#p B2PLYPD3/Def2QZVP 

methanol

0 1
C  -5.180685  -1.255074   0.908755
O  -3.766299  -1.122846   0.853048
H  -5.515878  -2.253485   0.527926
H  -5.733913  -0.470042   0.340466
H  -5.454269  -1.145819   2.038583
H  -3.439975  -1.192674   0.088887
