%chk=/home/boittier/MDCM/nms_sampling/methanol_geom.xyz.dir/methanol_2217.chk
%nproc=8
%mem=16000MB
#p B2PLYPD3/Def2QZVP 

methanol

0 1
C  -5.181157  -1.258391   0.913879
O  -3.771051  -1.125060   0.846858
H  -5.550752  -2.249798   0.572702
H  -5.659927  -0.420637   0.309103
H  -5.406886  -1.165211   2.040041
H  -3.440770  -1.153693   0.116814

