%chk=/home/boittier/MDCM/nms_sampling/methanol_geom.xyz.dir/methanol_2645.chk
%nproc=8
%mem=16000MB
#p B2PLYPD3/Def2QZVP 

methanol

0 1
C  -5.144978  -1.263570   0.902113
O  -3.783642  -1.121436   0.843446
H  -5.407198  -2.256360   0.555707
H  -5.780881  -0.276268   0.324541
H  -5.500200  -1.251585   2.049598
H  -3.580789  -1.207756   0.305696
