%chk=/home/boittier/MDCM/nms_sampling/methanol_geom.xyz.dir/methanol_2655.chk
%nproc=8
%mem=16000MB
#p B2PLYPD3/Def2QZVP 

methanol

0 1
C  -5.184956  -1.246729   0.908863
O  -3.764191  -1.116990   0.833077
H  -5.362564  -2.412476   0.517636
H  -5.706457  -0.424508   0.275436
H  -5.479288  -1.126414   2.106444
H  -3.589008  -1.281343   0.422826
