%chk=/home/boittier/MDCM/nms_sampling/methanol_geom.xyz.dir/methanol_689.chk
%nproc=8
%mem=16000MB
#p B2PLYPD3/Def2QZVP 

methanol

0 1
C  -5.185909  -1.253042   0.912034
O  -3.759100  -1.123268   0.868508
H  -5.530325  -2.229985   0.568327
H  -5.731993  -0.483643   0.373065
H  -5.477596  -1.179269   1.907660
H  -3.455616  -1.187938  -0.140566

