%chk=/home/boittier/MDCM/nms_sampling/methanol_geom.xyz.dir/methanol_2201.chk
%nproc=8
%mem=16000MB
#p B2PLYPD3/Def2QZVP 

methanol

0 1
C  -5.187789  -1.266445   0.905154
O  -3.753617  -1.118609   0.872713
H  -5.551901  -2.114571   0.589591
H  -5.717967  -0.491806   0.360236
H  -5.501117  -1.175741   1.967594
H  -3.484392  -1.220795  -0.200863
