%chk=/home/boittier/MDCM/nms_sampling/methanol_geom.xyz.dir/methanol_1413.chk
%nproc=8
%mem=16000MB
#p B2PLYPD3/Def2QZVP 

methanol

0 1
C  -5.179938  -1.261232   0.904516
O  -3.768135  -1.126507   0.883428
H  -5.527889  -2.090557   0.573683
H  -5.715581  -0.548018   0.392419
H  -5.454924  -1.149189   1.921705
H  -3.417972  -1.149110  -0.339599
