%chk=/home/boittier/MDCM/nms_sampling/methanol_geom.xyz.dir/methanol_1390.chk
%nproc=8
%mem=16000MB
#p B2PLYPD3/Def2QZVP 

methanol

0 1
C  -5.162174  -1.246095   0.904599
O  -3.776936  -1.127548   0.846833
H  -5.489276  -2.314005   0.497457
H  -5.739339  -0.440116   0.390239
H  -5.498329  -1.163414   2.062248
H  -3.462918  -1.174822   0.198624
