%chk=/home/boittier/MDCM/nms_sampling/methanol_geom.xyz.dir/methanol_2748.chk
%nproc=8
%mem=16000MB
#p B2PLYPD3/Def2QZVP 

methanol

0 1
C  -5.172013  -1.238013   0.889072
O  -3.790567  -1.135906   0.888848
H  -5.363828  -2.136833   0.644162
H  -5.593256  -0.572991   0.434379
H  -5.440470  -1.203597   1.930198
H  -3.457458  -1.137774  -0.364185

