%chk=/home/boittier/MDCM/nms_sampling/methanol_geom.xyz.dir/methanol_1839.chk
%nproc=8
%mem=16000MB
#p B2PLYPD3/Def2QZVP 

methanol

0 1
C  -5.189073  -1.267318   0.908422
O  -3.752093  -1.118339   0.852054
H  -5.547031  -2.219525   0.497217
H  -5.764236  -0.439267   0.364693
H  -5.459024  -1.148803   2.050557
H  -3.496974  -1.186938   0.103043

