%chk=/home/boittier/MDCM/nms_sampling/methanol_geom.xyz.dir/methanol_1964.chk
%nproc=8
%mem=16000MB
#p B2PLYPD3/Def2QZVP 

methanol

0 1
C  -5.191207  -1.265300   0.915586
O  -3.758959  -1.120951   0.850126
H  -5.523839  -2.236976   0.580309
H  -5.648165  -0.426848   0.295120
H  -5.451318  -1.122929   2.015270
H  -3.510472  -1.189154   0.074278
