%chk=/home/boittier/MDCM/nms_sampling/methanol_geom.xyz.dir/methanol_1295.chk
%nproc=8
%mem=16000MB
#p B2PLYPD3/Def2QZVP 

methanol

0 1
C  -5.173637  -1.256735   0.916320
O  -3.776516  -1.121633   0.840630
H  -5.499774  -2.314906   0.496587
H  -5.637883  -0.417828   0.356447
H  -5.406116  -1.132472   2.048016
H  -3.520983  -1.192327   0.211400

