%chk=/home/boittier/MDCM/nms_sampling/methanol_geom.xyz.dir/methanol_412.chk
%nproc=8
%mem=16000MB
#p B2PLYPD3/Def2QZVP 

methanol

0 1
C  -5.176084  -1.256610   0.915135
O  -3.769454  -1.123119   0.867297
H  -5.519956  -2.210783   0.526884
H  -5.720611  -0.483726   0.378173
H  -5.457635  -1.154624   1.915859
H  -3.447300  -1.191247  -0.130771

