%chk=/home/boittier/MDCM/nms_sampling/methanol_geom.xyz.dir/methanol_2322.chk
%nproc=8
%mem=16000MB
#p B2PLYPD3/Def2QZVP 

methanol

0 1
C  -5.175674  -1.258744   0.924530
O  -3.763520  -1.122522   0.865220
H  -5.517658  -2.198816   0.577037
H  -5.647097  -0.466068   0.302626
H  -5.523640  -1.158845   1.887029
H  -3.551937  -1.205771  -0.152786
