%chk=/home/boittier/MDCM/nms_sampling/methanol_geom.xyz.dir/methanol_3424.chk
%nproc=8
%mem=16000MB
#p B2PLYPD3/Def2QZVP 

methanol

0 1
C  -5.218684  -1.239637   0.903632
O  -3.750910  -1.124934   0.831965
H  -5.415738  -2.429085   0.495887
H  -5.786663  -0.444727   0.302043
H  -5.385485  -1.148076   2.142176
H  -3.369180  -1.178610   0.461133
