%chk=/home/boittier/MDCM/nms_sampling/methanol_geom.xyz.dir/methanol_875.chk
%nproc=8
%mem=16000MB
#p B2PLYPD3/Def2QZVP 

methanol

0 1
C  -5.191061  -1.254349   0.913124
O  -3.761562  -1.123754   0.873573
H  -5.491269  -2.188380   0.565777
H  -5.707877  -0.498618   0.361951
H  -5.458522  -1.175954   1.890720
H  -3.438381  -1.193991  -0.207110
