%chk=/home/boittier/MDCM/nms_sampling/methanol_geom.xyz.dir/methanol_1899.chk
%nproc=8
%mem=16000MB
#p B2PLYPD3/Def2QZVP 

methanol

0 1
C  -5.185795  -1.260038   0.906179
O  -3.770059  -1.124137   0.883019
H  -5.464322  -2.173563   0.582405
H  -5.707317  -0.526279   0.407848
H  -5.400600  -1.120090   1.862158
H  -3.451125  -1.162510  -0.312651
