%chk=/home/boittier/MDCM/nms_sampling/methanol_geom.xyz.dir/methanol_337.chk
%nproc=8
%mem=16000MB
#p B2PLYPD3/Def2QZVP 

methanol

0 1
C  -5.172165  -1.251609   0.910576
O  -3.773257  -1.124727   0.854299
H  -5.472643  -2.260492   0.546239
H  -5.694092  -0.431126   0.347138
H  -5.490220  -1.174675   1.994044
H  -3.472985  -1.207208   0.069366
