%chk=/home/boittier/MDCM/nms_sampling/methanol_geom.xyz.dir/methanol_3049.chk
%nproc=8
%mem=16000MB
#p B2PLYPD3/Def2QZVP 

methanol

0 1
C  -5.217401  -1.258345   0.906241
O  -3.746478  -1.124929   0.881135
H  -5.467985  -2.213651   0.652015
H  -5.730890  -0.488344   0.362684
H  -5.410846  -1.146120   1.835740
H  -3.419137  -1.144582  -0.277435
