%chk=/home/boittier/MDCM/nms_sampling/methanol_geom.xyz.dir/methanol_3228.chk
%nproc=8
%mem=16000MB
#p B2PLYPD3/Def2QZVP 

methanol

0 1
C  -5.179557  -1.241182   0.929916
O  -3.778207  -1.127403   0.842976
H  -5.457634  -2.376053   0.453697
H  -5.657852  -0.432154   0.338615
H  -5.376047  -1.183594   1.945776
H  -3.480236  -1.151712   0.177597

