%chk=/home/boittier/MDCM/nms_sampling/methanol_geom.xyz.dir/methanol_483.chk
%nproc=8
%mem=16000MB
#p B2PLYPD3/Def2QZVP 

methanol

0 1
C  -5.179585  -1.260362   0.911396
O  -3.761480  -1.121254   0.851744
H  -5.494691  -2.227178   0.527483
H  -5.706586  -0.426666   0.331277
H  -5.500591  -1.169405   2.028873
H  -3.525740  -1.206328   0.098878

