%chk=/home/boittier/MDCM/nms_sampling/methanol_geom.xyz.dir/methanol_3484.chk
%nproc=8
%mem=16000MB
#p B2PLYPD3/Def2QZVP 

methanol

0 1
C  -5.186963  -1.267481   0.921234
O  -3.769351  -1.119535   0.865596
H  -5.478330  -2.220887   0.602498
H  -5.713849  -0.439104   0.273656
H  -5.327529  -1.151083   1.875769
H  -3.498764  -1.157090  -0.104374

