%chk=/home/boittier/MDCM/nms_sampling/methanol_geom.xyz.dir/methanol_724.chk
%nproc=8
%mem=16000MB
#p B2PLYPD3/Def2QZVP 

methanol

0 1
C  -5.191851  -1.262835   0.914684
O  -3.760516  -1.119356   0.854239
H  -5.514771  -2.215451   0.551503
H  -5.673788  -0.443431   0.315853
H  -5.428333  -1.160113   2.005949
H  -3.485963  -1.208285   0.033922
