%chk=/home/boittier/MDCM/nms_sampling/methanol_geom.xyz.dir/methanol_1369.chk
%nproc=8
%mem=16000MB
#p B2PLYPD3/Def2QZVP 

methanol

0 1
C  -5.190766  -1.248212   0.907678
O  -3.764013  -1.127531   0.880791
H  -5.471921  -2.163606   0.621434
H  -5.597096  -0.556679   0.380750
H  -5.502846  -1.155845   1.892041
H  -3.489187  -1.192682  -0.336603

