%chk=/home/boittier/MDCM/nms_sampling/methanol_geom.xyz.dir/methanol_177.chk
%nproc=8
%mem=16000MB
#p B2PLYPD3/Def2QZVP 

methanol

0 1
C  -5.180993  -1.253836   0.907008
O  -3.768601  -1.124646   0.872302
H  -5.477548  -2.194192   0.601482
H  -5.670372  -0.507294   0.361115
H  -5.464542  -1.158758   1.928610
H  -3.488785  -1.188396  -0.186985

