%chk=/home/boittier/MDCM/nms_sampling/methanol_geom.xyz.dir/methanol_1152.chk
%nproc=8
%mem=16000MB
#p B2PLYPD3/Def2QZVP 

methanol

0 1
C  -5.175970  -1.257404   0.907563
O  -3.771856  -1.123849   0.851950
H  -5.468532  -2.239871   0.552504
H  -5.662618  -0.429452   0.343557
H  -5.464990  -1.157818   2.037017
H  -3.510043  -1.193019   0.096327
