%chk=/home/boittier/MDCM/nms_sampling/methanol_geom.xyz.dir/methanol_78.chk
%nproc=8
%mem=16000MB
#p B2PLYPD3/Def2QZVP 

methanol

0 1
C  -5.179306  -1.253241   0.918894
O  -3.767765  -1.120109   0.865055
H  -5.511163  -2.248414   0.545985
H  -5.654369  -0.488215   0.372911
H  -5.438221  -1.172822   1.897958
H  -3.533933  -1.213972  -0.132471
