%chk=/home/boittier/MDCM/nms_sampling/methanol_geom.xyz.dir/methanol_2514.chk
%nproc=8
%mem=16000MB
#p B2PLYPD3/Def2QZVP 

methanol

0 1
C  -5.189319  -1.284250   0.930529
O  -3.769912  -1.118251   0.843858
H  -5.456300  -2.223087   0.527043
H  -5.673879  -0.280209   0.258494
H  -5.341944  -1.126941   1.936813
H  -3.501732  -1.167873   0.171634
