%chk=/home/boittier/MDCM/nms_sampling/methanol_geom.xyz.dir/methanol_3448.chk
%nproc=8
%mem=16000MB
#p B2PLYPD3/Def2QZVP 

methanol

0 1
C  -5.183909  -1.251307   0.914971
O  -3.760869  -1.115061   0.836763
H  -5.356866  -2.373427   0.576532
H  -5.713639  -0.352777   0.221926
H  -5.489116  -1.210961   2.029886
H  -3.634233  -1.289204   0.364480
