%chk=/home/boittier/MDCM/nms_sampling/methanol_geom.xyz.dir/methanol_3414.chk
%nproc=8
%mem=16000MB
#p B2PLYPD3/Def2QZVP 

methanol

0 1
C  -5.170693  -1.264164   0.937331
O  -3.773125  -1.121427   0.878372
H  -5.578163  -2.114926   0.616549
H  -5.671667  -0.454357   0.257271
H  -5.449670  -1.210778   1.754362
H  -3.442503  -1.203845  -0.378898

