%chk=/home/boittier/MDCM/nms_sampling/methanol_geom.xyz.dir/methanol_2219.chk
%nproc=8
%mem=16000MB
#p B2PLYPD3/Def2QZVP 

methanol

0 1
C  -5.181294  -1.263603   0.901518
O  -3.761790  -1.119530   0.860075
H  -5.538698  -2.197752   0.607148
H  -5.749910  -0.435859   0.338583
H  -5.450880  -1.184183   2.019201
H  -3.463231  -1.201071   0.003185

