%chk=/home/boittier/MDCM/nms_sampling/methanol_geom.xyz.dir/methanol_3372.chk
%nproc=8
%mem=16000MB
#p B2PLYPD3/Def2QZVP 

methanol

0 1
C  -5.191055  -1.242903   0.888687
O  -3.757678  -1.124112   0.893015
H  -5.481602  -2.201989   0.639199
H  -5.698562  -0.669063   0.457202
H  -5.480780  -1.115781   1.911705
H  -3.507119  -1.193014  -0.426990

