%chk=/home/boittier/MDCM/nms_sampling/methanol_geom.xyz.dir/methanol_2764.chk
%nproc=8
%mem=16000MB
#p B2PLYPD3/Def2QZVP 

methanol

0 1
C  -5.184651  -1.271862   0.895184
O  -3.762379  -1.112773   0.837604
H  -5.479988  -2.284130   0.500443
H  -5.792418  -0.456090   0.315786
H  -5.352135  -1.078094   2.213368
H  -3.539218  -1.203276   0.373982
