%chk=/home/boittier/MDCM/nms_sampling/methanol_geom.xyz.dir/methanol_2115.chk
%nproc=8
%mem=16000MB
#p B2PLYPD3/Def2QZVP 

methanol

0 1
C  -5.187635  -1.248592   0.907188
O  -3.756488  -1.123476   0.858633
H  -5.565226  -2.268444   0.554313
H  -5.749719  -0.492908   0.372784
H  -5.484288  -1.176091   1.998571
H  -3.421006  -1.190916  -0.000303
