%chk=/home/boittier/MDCM/nms_sampling/methanol_geom.xyz.dir/methanol_1989.chk
%nproc=8
%mem=16000MB
#p B2PLYPD3/Def2QZVP 

methanol

0 1
C  -5.184306  -1.268551   0.926705
O  -3.766741  -1.120025   0.877285
H  -5.548325  -2.146139   0.594069
H  -5.655861  -0.479277   0.326702
H  -5.407395  -1.139961   1.806787
H  -3.477660  -1.186232  -0.335242
