%chk=/home/boittier/MDCM/nms_sampling/methanol_geom.xyz.dir/methanol_760.chk
%nproc=8
%mem=16000MB
#p B2PLYPD3/Def2QZVP 

methanol

0 1
C  -5.172862  -1.259844   0.919849
O  -3.769078  -1.120341   0.849258
H  -5.549945  -2.265769   0.518186
H  -5.701550  -0.441225   0.323175
H  -5.439792  -1.145547   1.997960
H  -3.498214  -1.193602   0.089413

