%chk=/home/boittier/MDCM/nms_sampling/methanol_geom.xyz.dir/methanol_236.chk
%nproc=8
%mem=16000MB
#p B2PLYPD3/Def2QZVP 

methanol

0 1
C  -5.178339  -1.253921   0.914194
O  -3.771924  -1.123068   0.866256
H  -5.522599  -2.205928   0.551497
H  -5.634430  -0.506694   0.379725
H  -5.446883  -1.154162   1.940149
H  -3.477754  -1.203334  -0.153366

