%chk=/home/boittier/MDCM/nms_sampling/methanol_geom.xyz.dir/methanol_2108.chk
%nproc=8
%mem=16000MB
#p B2PLYPD3/Def2QZVP 

methanol

0 1
C  -5.175606  -1.272048   0.923298
O  -3.763755  -1.120464   0.844522
H  -5.539842  -2.250481   0.538250
H  -5.756572  -0.348659   0.266341
H  -5.453699  -1.139691   1.985016
H  -3.484039  -1.170192   0.177021

