%chk=/home/boittier/MDCM/nms_sampling/methanol_geom.xyz.dir/methanol_2276.chk
%nproc=8
%mem=16000MB
#p B2PLYPD3/Def2QZVP 

methanol

0 1
C  -5.170412  -1.257536   0.910603
O  -3.777362  -1.122395   0.877410
H  -5.438668  -2.155425   0.579210
H  -5.679778  -0.491254   0.360181
H  -5.430655  -1.195993   1.883229
H  -3.533117  -1.197259  -0.244616
