%chk=/home/boittier/MDCM/nms_sampling/methanol_geom.xyz.dir/methanol_2084.chk
%nproc=8
%mem=16000MB
#p B2PLYPD3/Def2QZVP 

methanol

0 1
C  -5.198552  -1.256259   0.905536
O  -3.755885  -1.123707   0.866867
H  -5.488805  -2.208490   0.523945
H  -5.709926  -0.519874   0.396331
H  -5.447759  -1.131530   1.983537
H  -3.454845  -1.174508  -0.095834
