%chk=/home/boittier/MDCM/nms_sampling/methanol_geom.xyz.dir/methanol_2795.chk
%nproc=8
%mem=16000MB
#p B2PLYPD3/Def2QZVP 

methanol

0 1
C  -5.167118  -1.260236   0.900189
O  -3.785673  -1.119529   0.848658
H  -5.297177  -2.285046   0.589892
H  -5.699819  -0.305968   0.320894
H  -5.441962  -1.196412   2.013790
H  -3.549635  -1.264965   0.249877

