%chk=/home/boittier/MDCM/nms_sampling/methanol_geom.xyz.dir/methanol_3027.chk
%nproc=8
%mem=16000MB
#p B2PLYPD3/Def2QZVP 

methanol

0 1
C  -5.200184  -1.253779   0.906800
O  -3.758217  -1.112563   0.894516
H  -5.412543  -2.176293   0.591783
H  -5.667867  -0.574071   0.439467
H  -5.396028  -1.193710   1.783694
H  -3.575331  -1.286212  -0.468812
