%chk=/home/boittier/MDCM/nms_sampling/methanol_geom.xyz.dir/methanol_2663.chk
%nproc=8
%mem=16000MB
#p B2PLYPD3/Def2QZVP 

methanol

0 1
C  -5.156460  -1.241800   0.918676
O  -3.778370  -1.126683   0.831891
H  -5.516718  -2.380952   0.442402
H  -5.675818  -0.459505   0.342652
H  -5.513283  -1.128290   2.102647
H  -3.532634  -1.184702   0.337403

