%chk=/home/boittier/MDCM/nms_sampling/methanol_geom.xyz.dir/methanol_1900.chk
%nproc=8
%mem=16000MB
#p B2PLYPD3/Def2QZVP 

methanol

0 1
C  -5.180559  -1.252567   0.915891
O  -3.761758  -1.127277   0.843641
H  -5.493239  -2.246335   0.506379
H  -5.667789  -0.408846   0.314491
H  -5.561710  -1.179167   2.058589
H  -3.487464  -1.193337   0.186048
