%chk=/home/boittier/MDCM/nms_sampling/methanol_geom.xyz.dir/methanol_1600.chk
%nproc=8
%mem=16000MB
#p B2PLYPD3/Def2QZVP 

methanol

0 1
C  -5.181964  -1.257349   0.923578
O  -3.764989  -1.116392   0.844336
H  -5.515092  -2.287712   0.495044
H  -5.640056  -0.459713   0.308263
H  -5.449792  -1.133332   2.022207
H  -3.548832  -1.252913   0.138441

