%chk=/home/boittier/MDCM/nms_sampling/methanol_geom.xyz.dir/methanol_533.chk
%nproc=8
%mem=16000MB
#p B2PLYPD3/Def2QZVP 

methanol

0 1
C  -5.178116  -1.255849   0.921909
O  -3.764132  -1.119999   0.847760
H  -5.509013  -2.271363   0.523017
H  -5.673327  -0.426459   0.302970
H  -5.497087  -1.167989   1.991588
H  -3.527250  -1.233251   0.111603

