%chk=/home/boittier/MDCM/nms_sampling/methanol_geom.xyz.dir/methanol_1700.chk
%nproc=8
%mem=16000MB
#p B2PLYPD3/Def2QZVP 

methanol

0 1
C  -5.188011  -1.261722   0.912820
O  -3.760070  -1.120163   0.877777
H  -5.596400  -2.167450   0.590574
H  -5.670971  -0.564624   0.386438
H  -5.421258  -1.113744   1.896329
H  -3.469720  -1.180950  -0.327655

