%chk=/home/boittier/MDCM/nms_sampling/methanol_geom.xyz.dir/methanol_2328.chk
%nproc=8
%mem=16000MB
#p B2PLYPD3/Def2QZVP 

methanol

0 1
C  -5.177978  -1.259388   0.908343
O  -3.760275  -1.117583   0.880740
H  -5.497357  -2.172546   0.631733
H  -5.743588  -0.485513   0.353949
H  -5.498115  -1.197725   1.850863
H  -3.527967  -1.242396  -0.283862

