%chk=/home/boittier/MDCM/nms_sampling/methanol_geom.xyz.dir/methanol_2136.chk
%nproc=8
%mem=16000MB
#p B2PLYPD3/Def2QZVP 

methanol

0 1
C  -5.190220  -1.246701   0.905993
O  -3.762988  -1.127377   0.846802
H  -5.400403  -2.336714   0.559638
H  -5.709798  -0.401147   0.327846
H  -5.486738  -1.170389   2.024932
H  -3.487222  -1.179953   0.222426
