%chk=/home/boittier/MDCM/nms_sampling/methanol_geom.xyz.dir/methanol_714.chk
%nproc=8
%mem=16000MB
#p B2PLYPD3/Def2QZVP 

methanol

0 1
C  -5.179016  -1.253521   0.909015
O  -3.766865  -1.124390   0.873702
H  -5.523910  -2.212594   0.571095
H  -5.729187  -0.521101   0.386615
H  -5.457057  -1.146741   1.905659
H  -3.443803  -1.175669  -0.205216
