%chk=/home/boittier/MDCM/nms_sampling/methanol_geom.xyz.dir/methanol_387.chk
%nproc=8
%mem=16000MB
#p B2PLYPD3/Def2QZVP 

methanol

0 1
C  -5.175865  -1.247300   0.909997
O  -3.773368  -1.124160   0.857760
H  -5.493862  -2.264675   0.550548
H  -5.669126  -0.489778   0.359679
H  -5.454760  -1.168779   1.994124
H  -3.471931  -1.205480   0.001898

