%chk=/home/boittier/MDCM/nms_sampling/methanol_geom.xyz.dir/methanol_273.chk
%nproc=8
%mem=16000MB
#p B2PLYPD3/Def2QZVP 

methanol

0 1
C  -5.187676  -1.256740   0.909808
O  -3.763914  -1.121584   0.872720
H  -5.515053  -2.183458   0.571194
H  -5.682849  -0.537091   0.366989
H  -5.441615  -1.137783   1.934377
H  -3.461655  -1.203164  -0.209862

