%chk=/home/boittier/MDCM/nms_sampling/methanol_geom.xyz.dir/methanol_3344.chk
%nproc=8
%mem=16000MB
#p B2PLYPD3/Def2QZVP 

methanol

0 1
C  -5.153821  -1.264665   0.921929
O  -3.770944  -1.117598   0.887137
H  -5.522558  -2.138912   0.497138
H  -5.760677  -0.519372   0.421211
H  -5.512642  -1.158263   1.773442
H  -3.581545  -1.220409  -0.405367
