%chk=/home/boittier/MDCM/nms_sampling/methanol_geom.xyz.dir/methanol_1732.chk
%nproc=8
%mem=16000MB
#p B2PLYPD3/Def2QZVP 

methanol

0 1
C  -5.192245  -1.258647   0.911910
O  -3.756485  -1.122570   0.854192
H  -5.460278  -2.244841   0.571340
H  -5.725907  -0.420009   0.288841
H  -5.467710  -1.179105   1.994105
H  -3.505805  -1.184298   0.087384

