%chk=/home/boittier/MDCM/nms_sampling/methanol_geom.xyz.dir/methanol_2484.chk
%nproc=8
%mem=16000MB
#p B2PLYPD3/Def2QZVP 

methanol

0 1
C  -5.199881  -1.238616   0.902399
O  -3.761566  -1.129608   0.899737
H  -5.363125  -2.193980   0.583874
H  -5.613549  -0.620072   0.491932
H  -5.511221  -1.133461   1.772032
H  -3.512076  -1.195195  -0.534524
