%chk=/home/boittier/MDCM/nms_sampling/methanol_geom.xyz.dir/methanol_2310.chk
%nproc=8
%mem=16000MB
#p B2PLYPD3/Def2QZVP 

methanol

0 1
C  -5.170022  -1.258889   0.922019
O  -3.770193  -1.124543   0.876134
H  -5.561447  -2.157642   0.590863
H  -5.672141  -0.456820   0.366659
H  -5.475117  -1.211034   1.818158
H  -3.487721  -1.170393  -0.307817

