%chk=/home/boittier/MDCM/nms_sampling/methanol_geom.xyz.dir/methanol_1968.chk
%nproc=8
%mem=16000MB
#p B2PLYPD3/Def2QZVP 

methanol

0 1
C  -5.186350  -1.247900   0.919668
O  -3.757128  -1.125613   0.840664
H  -5.601255  -2.313120   0.491435
H  -5.692169  -0.433624   0.356914
H  -5.480890  -1.195081   2.040784
H  -3.447826  -1.161502   0.183121
