%chk=/home/boittier/MDCM/nms_sampling/methanol_geom.xyz.dir/methanol_396.chk
%nproc=8
%mem=16000MB
#p B2PLYPD3/Def2QZVP 

methanol

0 1
C  -5.184197  -1.246483   0.916257
O  -3.765259  -1.122578   0.866845
H  -5.530800  -2.232395   0.561394
H  -5.630579  -0.540509   0.364281
H  -5.469585  -1.170471   1.929586
H  -3.491885  -1.219813  -0.171220
