%chk=/home/boittier/MDCM/nms_sampling/methanol_geom.xyz.dir/methanol_1354.chk
%nproc=8
%mem=16000MB
#p B2PLYPD3/Def2QZVP 

methanol

0 1
C  -5.187317  -1.260997   0.915204
O  -3.752566  -1.115405   0.840337
H  -5.596060  -2.278225   0.511286
H  -5.751859  -0.436793   0.302780
H  -5.453827  -1.169176   2.087597
H  -3.483712  -1.227272   0.225288
