%chk=/home/boittier/MDCM/nms_sampling/methanol_geom.xyz.dir/methanol_3178.chk
%nproc=8
%mem=16000MB
#p B2PLYPD3/Def2QZVP 

methanol

0 1
C  -5.174007  -1.250827   0.923944
O  -3.757184  -1.111635   0.821365
H  -5.575825  -2.368616   0.406593
H  -5.661807  -0.418115   0.333238
H  -5.517742  -1.192914   2.153094
H  -3.617184  -1.304813   0.440961
