%chk=/home/boittier/MDCM/nms_sampling/methanol_geom.xyz.dir/methanol_2498.chk
%nproc=8
%mem=16000MB
#p B2PLYPD3/Def2QZVP 

methanol

0 1
C  -5.190051  -1.233551   0.901835
O  -3.762382  -1.127834   0.833308
H  -5.328591  -2.476840   0.447757
H  -5.787181  -0.378408   0.394253
H  -5.487714  -1.185549   2.078411
H  -3.499750  -1.187202   0.485206

