%chk=/home/boittier/MDCM/nms_sampling/methanol_geom.xyz.dir/methanol_1212.chk
%nproc=8
%mem=16000MB
#p B2PLYPD3/Def2QZVP 

methanol

0 1
C  -5.180983  -1.255791   0.927425
O  -3.766060  -1.118109   0.863030
H  -5.508999  -2.251481   0.533913
H  -5.648416  -0.498206   0.322631
H  -5.458099  -1.132168   1.882963
H  -3.532204  -1.243632  -0.123913

