%chk=/home/boittier/MDCM/nms_sampling/methanol_geom.xyz.dir/methanol_2604.chk
%nproc=8
%mem=16000MB
#p B2PLYPD3/Def2QZVP 

methanol

0 1
C  -5.179987  -1.267837   0.905385
O  -3.754438  -1.118247   0.885452
H  -5.650954  -2.077448   0.597784
H  -5.800343  -0.576718   0.371275
H  -5.407800  -1.194114   1.921572
H  -3.474154  -1.142859  -0.386602

