%chk=/home/boittier/MDCM/nms_sampling/methanol_geom.xyz.dir/methanol_62.chk
%nproc=8
%mem=16000MB
#p B2PLYPD3/Def2QZVP 

methanol

0 1
C  -5.181597  -1.256387   0.911574
O  -3.766345  -1.120036   0.857614
H  -5.489782  -2.266680   0.565315
H  -5.718663  -0.449287   0.334099
H  -5.431170  -1.164698   1.967533
H  -3.493033  -1.208903   0.024318

