%chk=/home/boittier/MDCM/nms_sampling/methanol_geom.xyz.dir/methanol_2878.chk
%nproc=8
%mem=16000MB
#p B2PLYPD3/Def2QZVP 

methanol

0 1
C  -5.206589  -1.261720   0.891579
O  -3.748076  -1.126218   0.832547
H  -5.436970  -2.272288   0.538094
H  -5.779264  -0.284283   0.345949
H  -5.546916  -1.181950   2.185230
H  -3.358322  -1.202478   0.465854
