%chk=/home/boittier/MDCM/nms_sampling/methanol_geom.xyz.dir/methanol_1434.chk
%nproc=8
%mem=16000MB
#p B2PLYPD3/Def2QZVP 

methanol

0 1
C  -5.174682  -1.263134   0.924605
O  -3.774505  -1.123247   0.840896
H  -5.458361  -2.284405   0.521895
H  -5.672787  -0.366561   0.261914
H  -5.437945  -1.130548   2.002375
H  -3.509119  -1.181924   0.223815

