%chk=/home/boittier/MDCM/nms_sampling/methanol_geom.xyz.dir/methanol_298.chk
%nproc=8
%mem=16000MB
#p B2PLYPD3/Def2QZVP 

methanol

0 1
C  -5.191323  -1.257148   0.909432
O  -3.762550  -1.122756   0.856849
H  -5.470841  -2.251768   0.573192
H  -5.702718  -0.437483   0.329208
H  -5.452205  -1.149439   1.985409
H  -3.452312  -1.201186   0.040779
