%chk=/home/boittier/MDCM/nms_sampling/methanol_geom.xyz.dir/methanol_3219.chk
%nproc=8
%mem=16000MB
#p B2PLYPD3/Def2QZVP 

methanol

0 1
C  -5.194954  -1.254426   0.935736
O  -3.751621  -1.128399   0.825096
H  -5.566742  -2.352222   0.524549
H  -5.722038  -0.301903   0.202515
H  -5.496066  -1.203590   2.016922
H  -3.416926  -1.132397   0.395106
