%chk=/home/boittier/MDCM/nms_sampling/methanol_geom.xyz.dir/methanol_301.chk
%nproc=8
%mem=16000MB
#p B2PLYPD3/Def2QZVP 

methanol

0 1
C  -5.179858  -1.248021   0.920870
O  -3.762797  -1.124755   0.849976
H  -5.521030  -2.286157   0.502755
H  -5.691451  -0.446071   0.337883
H  -5.502806  -1.191013   1.979462
H  -3.492152  -1.191915   0.085602
