%chk=/home/boittier/MDCM/nms_sampling/methanol_geom.xyz.dir/methanol_455.chk
%nproc=8
%mem=16000MB
#p B2PLYPD3/Def2QZVP 

methanol

0 1
C  -5.171416  -1.251402   0.916685
O  -3.772746  -1.125553   0.851968
H  -5.520804  -2.242242   0.543292
H  -5.658449  -0.456434   0.317061
H  -5.500809  -1.164633   2.008607
H  -3.466622  -1.200568   0.052036

