%chk=/home/boittier/MDCM/nms_sampling/methanol_geom.xyz.dir/methanol_676.chk
%nproc=8
%mem=16000MB
#p B2PLYPD3/Def2QZVP 

methanol

0 1
C  -5.174628  -1.263461   0.908025
O  -3.768191  -1.121965   0.867897
H  -5.521995  -2.164212   0.570749
H  -5.703926  -0.463875   0.370124
H  -5.465607  -1.164114   1.955114
H  -3.486022  -1.189870  -0.132516
