%chk=/home/boittier/MDCM/nms_sampling/methanol_geom.xyz.dir/methanol_1937.chk
%nproc=8
%mem=16000MB
#p B2PLYPD3/Def2QZVP 

methanol

0 1
C  -5.181075  -1.244584   0.916807
O  -3.764759  -1.123266   0.846328
H  -5.464309  -2.323502   0.464486
H  -5.732329  -0.441330   0.349497
H  -5.489833  -1.191787   2.010589
H  -3.479698  -1.218489   0.187895
