%chk=/home/boittier/MDCM/nms_sampling/methanol_geom.xyz.dir/methanol_1210.chk
%nproc=8
%mem=16000MB
#p B2PLYPD3/Def2QZVP 

methanol

0 1
C  -5.158761  -1.253128   0.911279
O  -3.774592  -1.117727   0.851089
H  -5.508767  -2.281530   0.519888
H  -5.764311  -0.463717   0.323442
H  -5.456307  -1.186812   2.027706
H  -3.539402  -1.231230   0.127451

