%chk=/home/boittier/MDCM/nms_sampling/methanol_geom.xyz.dir/methanol_257.chk
%nproc=8
%mem=16000MB
#p B2PLYPD3/Def2QZVP 

methanol

0 1
C  -5.182804  -1.252936   0.917067
O  -3.768495  -1.122469   0.851922
H  -5.542815  -2.279872   0.543387
H  -5.675487  -0.463098   0.336056
H  -5.419596  -1.155176   1.989704
H  -3.448243  -1.192024   0.049844
