%chk=/home/boittier/MDCM/nms_sampling/methanol_geom.xyz.dir/methanol_3059.chk
%nproc=8
%mem=16000MB
#p B2PLYPD3/Def2QZVP 

methanol

0 1
C  -5.202617  -1.267018   0.923030
O  -3.765892  -1.127543   0.877826
H  -5.561715  -2.037185   0.603053
H  -5.544213  -0.516864   0.315270
H  -5.360501  -1.179648   1.893684
H  -3.416657  -1.118211  -0.390564
