%chk=/home/boittier/MDCM/nms_sampling/methanol_geom.xyz.dir/methanol_3354.chk
%nproc=8
%mem=16000MB
#p B2PLYPD3/Def2QZVP 

methanol

0 1
C  -5.172703  -1.236984   0.929837
O  -3.762151  -1.126682   0.878725
H  -5.584973  -2.253415   0.537102
H  -5.660059  -0.547304   0.416979
H  -5.603841  -1.181108   1.756853
H  -3.456722  -1.232147  -0.375885
