%chk=/home/boittier/MDCM/nms_sampling/methanol_geom.xyz.dir/methanol_672.chk
%nproc=8
%mem=16000MB
#p B2PLYPD3/Def2QZVP 

methanol

0 1
C  -5.179412  -1.256123   0.910983
O  -3.766090  -1.125780   0.869614
H  -5.527062  -2.155098   0.563785
H  -5.694775  -0.499481   0.352604
H  -5.485449  -1.178823   1.951621
H  -3.448454  -1.174203  -0.169094
