%chk=/home/boittier/MDCM/nms_sampling/methanol_geom.xyz.dir/methanol_684.chk
%nproc=8
%mem=16000MB
#p B2PLYPD3/Def2QZVP 

methanol

0 1
C  -5.179121  -1.252472   0.908671
O  -3.764560  -1.125583   0.871921
H  -5.500991  -2.181436   0.574612
H  -5.692567  -0.517946   0.362693
H  -5.514448  -1.162760   1.937934
H  -3.478158  -1.190309  -0.185852
