%chk=/home/boittier/MDCM/nms_sampling/methanol_geom.xyz.dir/methanol_3223.chk
%nproc=8
%mem=16000MB
#p B2PLYPD3/Def2QZVP 

methanol

0 1
C  -5.177631  -1.242697   0.928617
O  -3.758974  -1.129156   0.867202
H  -5.558491  -2.111204   0.534157
H  -5.573612  -0.507801   0.315832
H  -5.630065  -1.283612   1.918727
H  -3.521766  -1.212925  -0.239719

