%chk=/home/boittier/MDCM/nms_sampling/methanol_geom.xyz.dir/methanol_2436.chk
%nproc=8
%mem=16000MB
#p B2PLYPD3/Def2QZVP 

methanol

0 1
C  -5.178326  -1.253330   0.918509
O  -3.779451  -1.134629   0.844927
H  -5.566163  -2.226817   0.565662
H  -5.564037  -0.449130   0.303003
H  -5.455683  -1.111785   2.060437
H  -3.370514  -1.112048   0.084937

