%chk=/home/boittier/MDCM/nms_sampling/methanol_geom.xyz.dir/methanol_1923.chk
%nproc=8
%mem=16000MB
#p B2PLYPD3/Def2QZVP 

methanol

0 1
C  -5.159893  -1.248525   0.914015
O  -3.778345  -1.127460   0.851893
H  -5.538742  -2.256018   0.555336
H  -5.661843  -0.453045   0.336881
H  -5.532499  -1.161471   2.010336
H  -3.458541  -1.197877   0.052416

