%chk=/home/boittier/MDCM/nms_sampling/methanol_geom.xyz.dir/methanol_1735.chk
%nproc=8
%mem=16000MB
#p B2PLYPD3/Def2QZVP 

methanol

0 1
C  -5.176133  -1.268639   0.918347
O  -3.772637  -1.118747   0.843668
H  -5.546240  -2.242444   0.574054
H  -5.640995  -0.385557   0.286115
H  -5.416809  -1.130180   2.032763
H  -3.487943  -1.211852   0.145639
