%chk=/home/boittier/MDCM/nms_sampling/methanol_geom.xyz.dir/methanol_3366.chk
%nproc=8
%mem=16000MB
#p B2PLYPD3/Def2QZVP 

methanol

0 1
C  -5.178757  -1.272857   0.901708
O  -3.763987  -1.121071   0.840475
H  -5.465764  -2.306839   0.608292
H  -5.854852  -0.264207   0.284365
H  -5.481889  -1.122866   2.043273
H  -3.391823  -1.197925   0.354965
