%chk=/home/boittier/MDCM/nms_sampling/methanol_geom.xyz.dir/methanol_1841.chk
%nproc=8
%mem=16000MB
#p B2PLYPD3/Def2QZVP 

methanol

0 1
C  -5.194922  -1.254125   0.924064
O  -3.754209  -1.125464   0.867776
H  -5.574296  -2.237858   0.522795
H  -5.676023  -0.477156   0.407965
H  -5.487232  -1.150844   1.849247
H  -3.430627  -1.168444  -0.199388
