%chk=/home/boittier/MDCM/nms_sampling/methanol_geom.xyz.dir/methanol_3559.chk
%nproc=8
%mem=16000MB
#p B2PLYPD3/Def2QZVP 

methanol

0 1
C  -5.194362  -1.267161   0.934369
O  -3.758483  -1.118932   0.868694
H  -5.496337  -2.201628   0.631236
H  -5.532270  -0.449077   0.278348
H  -5.475006  -1.108390   1.798065
H  -3.600850  -1.226696  -0.262699

