%chk=/home/boittier/MDCM/nms_sampling/methanol_geom.xyz.dir/methanol_1307.chk
%nproc=8
%mem=16000MB
#p B2PLYPD3/Def2QZVP 

methanol

0 1
C  -5.181203  -1.250859   0.910458
O  -3.772651  -1.127220   0.880480
H  -5.493561  -2.220263   0.596444
H  -5.708556  -0.542468   0.386223
H  -5.420328  -1.123814   1.847666
H  -3.416101  -1.153457  -0.298414
