%chk=/home/boittier/MDCM/nms_sampling/methanol_geom.xyz.dir/methanol_1333.chk
%nproc=8
%mem=16000MB
#p B2PLYPD3/Def2QZVP 

methanol

0 1
C  -5.175763  -1.262444   0.921906
O  -3.761524  -1.121843   0.871392
H  -5.572990  -2.115863   0.556124
H  -5.638049  -0.492720   0.345449
H  -5.519739  -1.190407   1.901932
H  -3.536618  -1.199845  -0.261953

