%chk=/home/boittier/MDCM/nms_sampling/methanol_geom.xyz.dir/methanol_2621.chk
%nproc=8
%mem=16000MB
#p B2PLYPD3/Def2QZVP 

methanol

0 1
C  -5.207865  -1.275611   0.903671
O  -3.751848  -1.114309   0.836172
H  -5.424268  -2.204915   0.540856
H  -5.721292  -0.328320   0.257136
H  -5.398709  -1.190377   2.161527
H  -3.504208  -1.236684   0.369574
