%chk=/home/boittier/MDCM/nms_sampling/methanol_geom.xyz.dir/methanol_881.chk
%nproc=8
%mem=16000MB
#p B2PLYPD3/Def2QZVP 

methanol

0 1
C  -5.180753  -1.253156   0.920040
O  -3.764176  -1.118378   0.869597
H  -5.541854  -2.211783   0.552726
H  -5.647139  -0.545651   0.352600
H  -5.453228  -1.162279   1.903750
H  -3.537532  -1.232160  -0.215200
