%chk=/home/boittier/MDCM/nms_sampling/methanol_geom.xyz.dir/methanol_131.chk
%nproc=8
%mem=16000MB
#p B2PLYPD3/Def2QZVP 

methanol

0 1
C  -5.185243  -1.260273   0.915522
O  -3.764256  -1.120067   0.870133
H  -5.514604  -2.160494   0.571648
H  -5.661148  -0.495054   0.340427
H  -5.440742  -1.179941   1.920926
H  -3.502978  -1.210474  -0.195087

