%chk=/home/boittier/MDCM/nms_sampling/methanol_geom.xyz.dir/methanol_3514.chk
%nproc=8
%mem=16000MB
#p B2PLYPD3/Def2QZVP 

methanol

0 1
C  -5.173613  -1.257213   0.901594
O  -3.772245  -1.127268   0.883528
H  -5.518344  -2.098254   0.565818
H  -5.753506  -0.525774   0.410988
H  -5.492216  -1.170116   1.918983
H  -3.361008  -1.178066  -0.313903

