%chk=/home/boittier/MDCM/nms_sampling/methanol_geom.xyz.dir/methanol_3431.chk
%nproc=8
%mem=16000MB
#p B2PLYPD3/Def2QZVP 

methanol

0 1
C  -5.180006  -1.272219   0.890361
O  -3.775206  -1.116927   0.832976
H  -5.455520  -2.306769   0.520120
H  -5.788526  -0.335807   0.367746
H  -5.351741  -1.100569   2.195765
H  -3.414346  -1.209826   0.458292
