%chk=/home/boittier/MDCM/nms_sampling/methanol_geom.xyz.dir/methanol_367.chk
%nproc=8
%mem=16000MB
#p B2PLYPD3/Def2QZVP 

methanol

0 1
C  -5.175072  -1.254206   0.910640
O  -3.769042  -1.122447   0.871094
H  -5.542536  -2.181420   0.540737
H  -5.705526  -0.523214   0.391564
H  -5.460678  -1.173433   1.938293
H  -3.455727  -1.200287  -0.191029
