%chk=/home/boittier/MDCM/nms_sampling/methanol_geom.xyz.dir/methanol_3264.chk
%nproc=8
%mem=16000MB
#p B2PLYPD3/Def2QZVP 

methanol

0 1
C  -5.210580  -1.265451   0.900393
O  -3.747971  -1.119384   0.844465
H  -5.447619  -2.213522   0.586145
H  -5.714157  -0.442540   0.236936
H  -5.394227  -1.169057   2.159971
H  -3.525900  -1.172454   0.247128
