%chk=/home/boittier/MDCM/nms_sampling/methanol_geom.xyz.dir/methanol_2443.chk
%nproc=8
%mem=16000MB
#p B2PLYPD3/Def2QZVP 

methanol

0 1
C  -5.193516  -1.267898   0.899191
O  -3.766568  -1.111963   0.862840
H  -5.557990  -2.191901   0.573905
H  -5.688259  -0.514220   0.392899
H  -5.283864  -1.145629   2.047866
H  -3.464844  -1.224264  -0.066295

