%chk=/home/boittier/MDCM/nms_sampling/methanol_geom.xyz.dir/methanol_1521.chk
%nproc=8
%mem=16000MB
#p B2PLYPD3/Def2QZVP 

methanol

0 1
C  -5.174208  -1.252791   0.909183
O  -3.771057  -1.120356   0.857154
H  -5.459715  -2.277534   0.542874
H  -5.739465  -0.493514   0.320104
H  -5.407656  -1.161712   2.003264
H  -3.539140  -1.191065   0.057865
