%chk=/home/boittier/MDCM/nms_sampling/methanol_geom.xyz.dir/methanol_2363.chk
%nproc=8
%mem=16000MB
#p B2PLYPD3/Def2QZVP 

methanol

0 1
C  -5.178029  -1.257219   0.909482
O  -3.758421  -1.118836   0.851328
H  -5.510138  -2.289122   0.530276
H  -5.794918  -0.441953   0.327512
H  -5.461996  -1.176102   2.018321
H  -3.531654  -1.194436   0.140870

