%chk=/home/boittier/MDCM/nms_sampling/methanol_geom.xyz.dir/methanol_2680.chk
%nproc=8
%mem=16000MB
#p B2PLYPD3/Def2QZVP 

methanol

0 1
C  -5.180421  -1.252640   0.922181
O  -3.764478  -1.125845   0.890340
H  -5.612636  -2.084593   0.615496
H  -5.701667  -0.564316   0.338359
H  -5.492650  -1.211903   1.792093
H  -3.363213  -1.187340  -0.516298

