%chk=/home/boittier/MDCM/nms_sampling/methanol_geom.xyz.dir/methanol_253.chk
%nproc=8
%mem=16000MB
#p B2PLYPD3/Def2QZVP 

methanol

0 1
C  -5.186035  -1.257024   0.917883
O  -3.762950  -1.121224   0.861461
H  -5.534051  -2.242425   0.564064
H  -5.681403  -0.477838   0.336447
H  -5.429009  -1.155603   1.931862
H  -3.489805  -1.188366  -0.078479
