%chk=/home/boittier/MDCM/nms_sampling/methanol_geom.xyz.dir/methanol_2043.chk
%nproc=8
%mem=16000MB
#p B2PLYPD3/Def2QZVP 

methanol

0 1
C  -5.190010  -1.249205   0.904941
O  -3.763695  -1.125230   0.855171
H  -5.448004  -2.256647   0.587659
H  -5.624848  -0.477846   0.333961
H  -5.507474  -1.140657   2.036637
H  -3.496778  -1.217605   0.049285

