%chk=/home/boittier/MDCM/nms_sampling/methanol_geom.xyz.dir/methanol_2307.chk
%nproc=8
%mem=16000MB
#p B2PLYPD3/Def2QZVP 

methanol

0 1
C  -5.183239  -1.268311   0.920942
O  -3.769459  -1.121440   0.849978
H  -5.479292  -2.245101   0.541613
H  -5.690071  -0.387320   0.288961
H  -5.400588  -1.126463   1.971275
H  -3.488453  -1.172666   0.103188
