%chk=/home/boittier/MDCM/nms_sampling/methanol_geom.xyz.dir/methanol_1978.chk
%nproc=8
%mem=16000MB
#p B2PLYPD3/Def2QZVP 

methanol

0 1
C  -5.175033  -1.258880   0.909875
O  -3.766906  -1.118380   0.855667
H  -5.519041  -2.292711   0.538807
H  -5.808902  -0.429005   0.353901
H  -5.423156  -1.157966   1.969184
H  -3.450080  -1.207388   0.081946

