%chk=/home/boittier/MDCM/nms_sampling/methanol_geom.xyz.dir/methanol_3326.chk
%nproc=8
%mem=16000MB
#p B2PLYPD3/Def2QZVP 

methanol

0 1
C  -5.197211  -1.268797   0.921651
O  -3.760338  -1.110311   0.877133
H  -5.544975  -2.125194   0.511276
H  -5.592464  -0.588852   0.386568
H  -5.360956  -1.110234   1.900096
H  -3.553402  -1.268347  -0.349465
