%chk=/home/boittier/MDCM/nms_sampling/methanol_geom.xyz.dir/methanol_1395.chk
%nproc=8
%mem=16000MB
#p B2PLYPD3/Def2QZVP 

methanol

0 1
C  -5.181281  -1.260898   0.904058
O  -3.766492  -1.128561   0.869364
H  -5.517012  -2.151285   0.581946
H  -5.706824  -0.461476   0.379973
H  -5.489020  -1.152931   1.965487
H  -3.411455  -1.145248  -0.141191
