%chk=/home/boittier/MDCM/nms_sampling/methanol_geom.xyz.dir/methanol_1411.chk
%nproc=8
%mem=16000MB
#p B2PLYPD3/Def2QZVP 

methanol

0 1
C  -5.156558  -1.255095   0.902778
O  -3.775646  -1.118997   0.848741
H  -5.503927  -2.272490   0.518859
H  -5.756883  -0.469808   0.346664
H  -5.484101  -1.149796   2.093358
H  -3.532543  -1.229727   0.176805
