%chk=/home/boittier/MDCM/nms_sampling/methanol_geom.xyz.dir/methanol_2636.chk
%nproc=8
%mem=16000MB
#p B2PLYPD3/Def2QZVP 

methanol

0 1
C  -5.147149  -1.250098   0.916370
O  -3.776483  -1.120068   0.882898
H  -5.672633  -2.139655   0.591732
H  -5.592323  -0.625290   0.425497
H  -5.494198  -1.194272   1.877470
H  -3.612429  -1.204272  -0.474705

