%chk=/home/boittier/MDCM/nms_sampling/methanol_geom.xyz.dir/methanol_1298.chk
%nproc=8
%mem=16000MB
#p B2PLYPD3/Def2QZVP 

methanol

0 1
C  -5.172458  -1.259023   0.929287
O  -3.765189  -1.118461   0.855414
H  -5.562658  -2.265353   0.513890
H  -5.708289  -0.449411   0.315927
H  -5.442730  -1.172309   1.907482
H  -3.541984  -1.198313  -0.018778

