%chk=/home/boittier/MDCM/nms_sampling/methanol_geom.xyz.dir/methanol_3272.chk
%nproc=8
%mem=16000MB
#p B2PLYPD3/Def2QZVP 

methanol

0 1
C  -5.171065  -1.256686   0.923644
O  -3.772715  -1.124907   0.830170
H  -5.663213  -2.320748   0.440537
H  -5.734813  -0.431950   0.330380
H  -5.438899  -1.093837   2.110388
H  -3.319886  -1.164354   0.312425

