%chk=/home/boittier/MDCM/nms_sampling/methanol_geom.xyz.dir/methanol_3012.chk
%nproc=8
%mem=16000MB
#p B2PLYPD3/Def2QZVP 

methanol

0 1
C  -5.198714  -1.245838   0.891469
O  -3.747906  -1.126935   0.894623
H  -5.601648  -2.118131   0.625527
H  -5.762643  -0.667614   0.444770
H  -5.466106  -1.187992   1.928956
H  -3.395994  -1.133241  -0.480162

