%chk=/home/boittier/MDCM/nms_sampling/methanol_geom.xyz.dir/methanol_1563.chk
%nproc=8
%mem=16000MB
#p B2PLYPD3/Def2QZVP 

methanol

0 1
C  -5.170494  -1.256678   0.909354
O  -3.763989  -1.119334   0.845694
H  -5.483179  -2.326526   0.508354
H  -5.761009  -0.393671   0.367751
H  -5.491715  -1.168195   2.020208
H  -3.561640  -1.211482   0.216946
