%chk=/home/boittier/MDCM/nms_sampling/methanol_geom.xyz.dir/methanol_534.chk
%nproc=8
%mem=16000MB
#p B2PLYPD3/Def2QZVP 

methanol

0 1
C  -5.185151  -1.253676   0.913606
O  -3.767183  -1.126083   0.850817
H  -5.494223  -2.245785   0.544699
H  -5.630699  -0.440061   0.337307
H  -5.477829  -1.156463   2.020754
H  -3.471699  -1.186203   0.074115

