%chk=/home/boittier/MDCM/nms_sampling/methanol_geom.xyz.dir/methanol_618.chk
%nproc=8
%mem=16000MB
#p B2PLYPD3/Def2QZVP 

methanol

0 1
C  -5.183546  -1.257903   0.909474
O  -3.763443  -1.119923   0.856956
H  -5.490421  -2.247495   0.544095
H  -5.676263  -0.461558   0.364871
H  -5.452503  -1.154746   1.997830
H  -3.535902  -1.210584   0.018884
