%chk=/home/boittier/MDCM/nms_sampling/methanol_geom.xyz.dir/methanol_3453.chk
%nproc=8
%mem=16000MB
#p B2PLYPD3/Def2QZVP 

methanol

0 1
C  -5.188336  -1.233312   0.937882
O  -3.754896  -1.129282   0.880318
H  -5.622571  -2.230110   0.525614
H  -5.666986  -0.625112   0.349417
H  -5.513151  -1.203029   1.763469
H  -3.436923  -1.155121  -0.428929

