%chk=/home/boittier/MDCM/nms_sampling/methanol_geom.xyz.dir/methanol_2994.chk
%nproc=8
%mem=16000MB
#p B2PLYPD3/Def2QZVP 

methanol

0 1
C  -5.170113  -1.276094   0.890914
O  -3.763689  -1.117043   0.845213
H  -5.564893  -2.266817   0.571302
H  -5.874010  -0.395123   0.348234
H  -5.393863  -1.103276   2.139626
H  -3.470783  -1.148191   0.275810
