%chk=/home/boittier/MDCM/nms_sampling/methanol_geom.xyz.dir/methanol_2968.chk
%nproc=8
%mem=16000MB
#p B2PLYPD3/Def2QZVP 

methanol

0 1
C  -5.208806  -1.248796   0.893501
O  -3.750780  -1.128350   0.885176
H  -5.500953  -2.205128   0.620837
H  -5.720709  -0.629563   0.420790
H  -5.457830  -1.070799   1.936606
H  -3.389244  -1.141987  -0.326554
