%chk=/home/boittier/MDCM/nms_sampling/methanol_geom.xyz.dir/methanol_2405.chk
%nproc=8
%mem=16000MB
#p B2PLYPD3/Def2QZVP 

methanol

0 1
C  -5.182237  -1.241946   0.933042
O  -3.756841  -1.127536   0.889418
H  -5.581915  -2.149447   0.601561
H  -5.570131  -0.519007   0.405758
H  -5.594977  -1.267445   1.686472
H  -3.521120  -1.210965  -0.569922
