%chk=/home/boittier/MDCM/nms_sampling/methanol_geom.xyz.dir/methanol_106.chk
%nproc=8
%mem=16000MB
#p B2PLYPD3/Def2QZVP 

methanol

0 1
C  -5.184141  -1.258984   0.920557
O  -3.762233  -1.122031   0.853590
H  -5.523374  -2.238596   0.531876
H  -5.709506  -0.411705   0.318983
H  -5.473375  -1.180075   1.957046
H  -3.457223  -1.202022   0.042773

