%chk=/home/boittier/MDCM/nms_sampling/methanol_geom.xyz.dir/methanol_888.chk
%nproc=8
%mem=16000MB
#p B2PLYPD3/Def2QZVP 

methanol

0 1
C  -5.183572  -1.250098   0.908949
O  -3.761280  -1.124011   0.871246
H  -5.510713  -2.231742   0.570140
H  -5.727095  -0.511445   0.383194
H  -5.476770  -1.174873   1.912067
H  -3.474903  -1.184049  -0.165877

