%chk=/home/boittier/MDCM/nms_sampling/methanol_geom.xyz.dir/methanol_471.chk
%nproc=8
%mem=16000MB
#p B2PLYPD3/Def2QZVP 

methanol

0 1
C  -5.181218  -1.258293   0.917198
O  -3.767293  -1.121749   0.852734
H  -5.518272  -2.276484   0.550776
H  -5.694060  -0.428679   0.330533
H  -5.423446  -1.152571   1.966751
H  -3.484648  -1.183590   0.057325
