%chk=/home/boittier/MDCM/nms_sampling/methanol_geom.xyz.dir/methanol_1714.chk
%nproc=8
%mem=16000MB
#p B2PLYPD3/Def2QZVP 

methanol

0 1
C  -5.193716  -1.255022   0.922145
O  -3.755089  -1.124166   0.871639
H  -5.602208  -2.138625   0.583817
H  -5.651515  -0.528534   0.318166
H  -5.494317  -1.186267   1.905244
H  -3.417771  -1.192903  -0.272860

