%chk=/home/boittier/MDCM/nms_sampling/methanol_geom.xyz.dir/methanol_3533.chk
%nproc=8
%mem=16000MB
#p B2PLYPD3/Def2QZVP 

methanol

0 1
C  -5.202441  -1.239806   0.893018
O  -3.757497  -1.123097   0.896079
H  -5.466904  -2.128497   0.624274
H  -5.614749  -0.667075   0.460879
H  -5.465643  -1.199174   1.902606
H  -3.488801  -1.235106  -0.509391

