%chk=/home/boittier/MDCM/nms_sampling/methanol_geom.xyz.dir/methanol_2415.chk
%nproc=8
%mem=16000MB
#p B2PLYPD3/Def2QZVP 

methanol

0 1
C  -5.191299  -1.246951   0.940925
O  -3.754663  -1.124145   0.820586
H  -5.558671  -2.427082   0.371357
H  -5.733660  -0.347945   0.304497
H  -5.518587  -1.151428   2.019390
H  -3.397855  -1.209841   0.455748

