%chk=/home/boittier/MDCM/nms_sampling/methanol_geom.xyz.dir/methanol_989.chk
%nproc=8
%mem=16000MB
#p B2PLYPD3/Def2QZVP 

methanol

0 1
C  -5.183457  -1.253618   0.916648
O  -3.762057  -1.125742   0.866035
H  -5.546231  -2.183923   0.570554
H  -5.673782  -0.496244   0.330796
H  -5.496234  -1.179771   1.938879
H  -3.457715  -1.177354  -0.148621
