%chk=/home/boittier/MDCM/nms_sampling/methanol_geom.xyz.dir/methanol_3100.chk
%nproc=8
%mem=16000MB
#p B2PLYPD3/Def2QZVP 

methanol

0 1
C  -5.182665  -1.247651   0.899289
O  -3.773163  -1.130770   0.892938
H  -5.392621  -2.057218   0.642655
H  -5.641155  -0.599677   0.333556
H  -5.494943  -1.196428   1.910893
H  -3.475936  -1.172726  -0.434757

