%chk=/home/boittier/MDCM/nms_sampling/methanol_geom.xyz.dir/methanol_925.chk
%nproc=8
%mem=16000MB
#p B2PLYPD3/Def2QZVP 

methanol

0 1
C  -5.176061  -1.248052   0.913933
O  -3.772999  -1.125415   0.848681
H  -5.507588  -2.287607   0.517447
H  -5.654393  -0.455945   0.358869
H  -5.446926  -1.175235   2.024214
H  -3.482433  -1.181935   0.107820

