%chk=/home/boittier/MDCM/nms_sampling/methanol_geom.xyz.dir/methanol_730.chk
%nproc=8
%mem=16000MB
#p B2PLYPD3/Def2QZVP 

methanol

0 1
C  -5.177123  -1.256921   0.917299
O  -3.768687  -1.123944   0.852694
H  -5.561826  -2.247102   0.520202
H  -5.688954  -0.438888   0.360811
H  -5.461707  -1.154451   1.986406
H  -3.432264  -1.184252   0.036148

