%chk=/home/boittier/MDCM/nms_sampling/methanol_geom.xyz.dir/methanol_3017.chk
%nproc=8
%mem=16000MB
#p B2PLYPD3/Def2QZVP 

methanol

0 1
C  -5.193517  -1.244705   0.912278
O  -3.763376  -1.126739   0.852862
H  -5.371138  -2.328292   0.603189
H  -5.633700  -0.431889   0.291287
H  -5.485320  -1.164215   1.963904
H  -3.550821  -1.195470   0.104142

