%chk=/home/boittier/MDCM/nms_sampling/methanol_geom.xyz.dir/methanol_2520.chk
%nproc=8
%mem=16000MB
#p B2PLYPD3/Def2QZVP 

methanol

0 1
C  -5.158016  -1.242135   0.924788
O  -3.787416  -1.122566   0.837237
H  -5.480265  -2.400210   0.439596
H  -5.674183  -0.402746   0.377463
H  -5.416273  -1.187040   1.988151
H  -3.507555  -1.218030   0.265773

