%chk=/home/boittier/MDCM/nms_sampling/methanol_geom.xyz.dir/methanol_265.chk
%nproc=8
%mem=16000MB
#p B2PLYPD3/Def2QZVP 

methanol

0 1
C  -5.175736  -1.247085   0.913052
O  -3.772164  -1.125545   0.856969
H  -5.455317  -2.274786   0.511300
H  -5.706416  -0.470122   0.356624
H  -5.462257  -1.178028   1.975211
H  -3.484383  -1.187438   0.039868

