%chk=/home/boittier/MDCM/nms_sampling/methanol_geom.xyz.dir/methanol_287.chk
%nproc=8
%mem=16000MB
#p B2PLYPD3/Def2QZVP 

methanol

0 1
C  -5.176303  -1.250148   0.911016
O  -3.773497  -1.125599   0.852436
H  -5.482377  -2.263151   0.528130
H  -5.670616  -0.472662   0.343293
H  -5.447338  -1.158525   2.028789
H  -3.479894  -1.179776   0.079633
