%chk=/home/boittier/MDCM/nms_sampling/methanol_geom.xyz.dir/methanol_3196.chk
%nproc=8
%mem=16000MB
#p B2PLYPD3/Def2QZVP 

methanol

0 1
C  -5.205823  -1.257682   0.916884
O  -3.743681  -1.122577   0.819432
H  -5.626347  -2.327835   0.545107
H  -5.692094  -0.325225   0.262026
H  -5.508056  -1.187656   2.170168
H  -3.379435  -1.201811   0.474112

