%chk=/home/boittier/MDCM/nms_sampling/methanol_geom.xyz.dir/methanol_2606.chk
%nproc=8
%mem=16000MB
#p B2PLYPD3/Def2QZVP 

methanol

0 1
C  -5.162406  -1.262781   0.896677
O  -3.772176  -1.122237   0.829540
H  -5.533237  -2.361317   0.489173
H  -5.831521  -0.371974   0.369959
H  -5.421991  -1.110459   2.186934
H  -3.474945  -1.139428   0.477719

