%chk=/home/boittier/MDCM/nms_sampling/methanol_geom.xyz.dir/methanol_195.chk
%nproc=8
%mem=16000MB
#p B2PLYPD3/Def2QZVP 

methanol

0 1
C  -5.183982  -1.256268   0.909771
O  -3.760567  -1.121021   0.866414
H  -5.512816  -2.229910   0.550845
H  -5.746096  -0.466516   0.382932
H  -5.467388  -1.177540   1.927960
H  -3.468449  -1.204056  -0.092724
