%chk=/home/boittier/MDCM/nms_sampling/methanol_geom.xyz.dir/methanol_2425.chk
%nproc=8
%mem=16000MB
#p B2PLYPD3/Def2QZVP 

methanol

0 1
C  -5.161863  -1.254317   0.930734
O  -3.785103  -1.122480   0.881197
H  -5.512489  -2.188338   0.538539
H  -5.542342  -0.582528   0.389137
H  -5.417690  -1.106361   1.785164
H  -3.594281  -1.193572  -0.432505

