%chk=/home/boittier/MDCM/nms_sampling/methanol_geom.xyz.dir/methanol_380.chk
%nproc=8
%mem=16000MB
#p B2PLYPD3/Def2QZVP 

methanol

0 1
C  -5.167153  -1.258285   0.920786
O  -3.772176  -1.122379   0.869388
H  -5.531495  -2.182502   0.553989
H  -5.659747  -0.483774   0.354125
H  -5.489278  -1.165227   1.885268
H  -3.522645  -1.203072  -0.203624
