%chk=/home/boittier/MDCM/nms_sampling/methanol_geom.xyz.dir/methanol_1314.chk
%nproc=8
%mem=16000MB
#p B2PLYPD3/Def2QZVP 

methanol

0 1
C  -5.165806  -1.245911   0.918061
O  -3.775085  -1.127411   0.865540
H  -5.531943  -2.252343   0.525096
H  -5.707070  -0.477081   0.394604
H  -5.477617  -1.201045   1.890422
H  -3.458382  -1.166354  -0.123415

