%chk=/home/boittier/MDCM/nms_sampling/methanol_geom.xyz.dir/methanol_1262.chk
%nproc=8
%mem=16000MB
#p B2PLYPD3/Def2QZVP 

methanol

0 1
C  -5.162316  -1.246743   0.924775
O  -3.776711  -1.127360   0.843649
H  -5.512024  -2.344696   0.479083
H  -5.699246  -0.426672   0.336479
H  -5.499633  -1.142185   1.975759
H  -3.481766  -1.174178   0.173208
