%chk=/home/boittier/MDCM/nms_sampling/methanol_geom.xyz.dir/methanol_109.chk
%nproc=8
%mem=16000MB
#p B2PLYPD3/Def2QZVP 

methanol

0 1
C  -5.180198  -1.251399   0.917509
O  -3.767098  -1.119620   0.847463
H  -5.508868  -2.283664   0.508567
H  -5.654431  -0.471188   0.328959
H  -5.445719  -1.170016   2.030374
H  -3.530577  -1.227027   0.116625
