%chk=/home/boittier/MDCM/nms_sampling/methanol_geom.xyz.dir/methanol_1357.chk
%nproc=8
%mem=16000MB
#p B2PLYPD3/Def2QZVP 

methanol

0 1
C  -5.174033  -1.264328   0.908620
O  -3.764723  -1.119772   0.874105
H  -5.546107  -2.115930   0.607439
H  -5.725981  -0.495348   0.324703
H  -5.471408  -1.193631   1.942334
H  -3.494838  -1.203196  -0.221491

