%chk=/home/boittier/MDCM/nms_sampling/methanol_geom.xyz.dir/methanol_678.chk
%nproc=8
%mem=16000MB
#p B2PLYPD3/Def2QZVP 

methanol

0 1
C  -5.185229  -1.260554   0.913516
O  -3.758826  -1.120211   0.860245
H  -5.514081  -2.220328   0.566683
H  -5.734373  -0.444184   0.319224
H  -5.463254  -1.178756   1.958656
H  -3.493563  -1.199540  -0.020350
