%chk=/home/boittier/MDCM/nms_sampling/methanol_geom.xyz.dir/methanol_1254.chk
%nproc=8
%mem=16000MB
#p B2PLYPD3/Def2QZVP 

methanol

0 1
C  -5.188422  -1.257857   0.910620
O  -3.758093  -1.123853   0.843740
H  -5.519701  -2.221341   0.509042
H  -5.724292  -0.401316   0.315133
H  -5.503625  -1.198486   2.091707
H  -3.429450  -1.197963   0.208821

