%chk=/home/boittier/MDCM/nms_sampling/methanol_geom.xyz.dir/methanol_2521.chk
%nproc=8
%mem=16000MB
#p B2PLYPD3/Def2QZVP 

methanol

0 1
C  -5.177775  -1.245733   0.905420
O  -3.755727  -1.129445   0.897880
H  -5.492921  -2.117311   0.674125
H  -5.715694  -0.552489   0.381166
H  -5.622966  -1.222579   1.779171
H  -3.504519  -1.184597  -0.527196

