%chk=/home/boittier/MDCM/nms_sampling/methanol_geom.xyz.dir/methanol_3246.chk
%nproc=8
%mem=16000MB
#p B2PLYPD3/Def2QZVP 

methanol

0 1
C  -5.174089  -1.235276   0.905056
O  -3.782790  -1.128500   0.881460
H  -5.339973  -2.237194   0.544841
H  -5.691691  -0.585830   0.388117
H  -5.422724  -1.188612   1.884119
H  -3.509253  -1.182996  -0.240935
