%chk=/home/boittier/MDCM/nms_sampling/methanol_geom.xyz.dir/methanol_2819.chk
%nproc=8
%mem=16000MB
#p B2PLYPD3/Def2QZVP 

methanol

0 1
C  -5.165523  -1.241844   0.929174
O  -3.758895  -1.118652   0.879432
H  -5.562420  -2.238628   0.520727
H  -5.698042  -0.608135   0.364728
H  -5.537831  -1.204773   1.799083
H  -3.643688  -1.229263  -0.358197
