%chk=/home/boittier/MDCM/nms_sampling/methanol_geom.xyz.dir/methanol_2105.chk
%nproc=8
%mem=16000MB
#p B2PLYPD3/Def2QZVP 

methanol

0 1
C  -5.181014  -1.263245   0.926889
O  -3.759410  -1.118883   0.875515
H  -5.592790  -2.188703   0.533629
H  -5.714215  -0.527987   0.363283
H  -5.436744  -1.133080   1.825842
H  -3.504564  -1.180890  -0.304935

