%chk=/home/boittier/MDCM/nms_sampling/methanol_geom.xyz.dir/methanol_480.chk
%nproc=8
%mem=16000MB
#p B2PLYPD3/Def2QZVP 

methanol

0 1
C  -5.175752  -1.253451   0.917780
O  -3.771282  -1.119392   0.847771
H  -5.516449  -2.292936   0.525788
H  -5.656032  -0.445111   0.337029
H  -5.428878  -1.170114   2.006292
H  -3.522737  -1.223345   0.109312
