%chk=/home/boittier/MDCM/nms_sampling/methanol_geom.xyz.dir/methanol_2890.chk
%nproc=8
%mem=16000MB
#p B2PLYPD3/Def2QZVP 

methanol

0 1
C  -5.183651  -1.250506   0.923533
O  -3.765555  -1.119149   0.874606
H  -5.561293  -2.178388   0.516303
H  -5.509231  -0.638435   0.406970
H  -5.433569  -1.131861   1.907206
H  -3.622914  -1.217810  -0.361837

