%chk=/home/boittier/MDCM/nms_sampling/methanol_geom.xyz.dir/methanol_1819.chk
%nproc=8
%mem=16000MB
#p B2PLYPD3/Def2QZVP 

methanol

0 1
C  -5.190652  -1.251803   0.913080
O  -3.768209  -1.128027   0.851878
H  -5.408196  -2.276079   0.522751
H  -5.709332  -0.412519   0.320981
H  -5.443237  -1.165191   1.989635
H  -3.433534  -1.164450   0.132889
