%chk=/home/boittier/MDCM/nms_sampling/methanol_geom.xyz.dir/methanol_96.chk
%nproc=8
%mem=16000MB
#p B2PLYPD3/Def2QZVP 

methanol

0 1
C  -5.170920  -1.250804   0.921641
O  -3.772504  -1.124253   0.866399
H  -5.527920  -2.222065   0.517566
H  -5.670207  -0.502430   0.371233
H  -5.489646  -1.159280   1.897028
H  -3.470854  -1.205559  -0.157563
