%chk=/home/boittier/MDCM/nms_sampling/methanol_geom.xyz.dir/methanol_1552.chk
%nproc=8
%mem=16000MB
#p B2PLYPD3/Def2QZVP 

methanol

0 1
C  -5.173525  -1.252191   0.921221
O  -3.773186  -1.125451   0.851261
H  -5.579400  -2.261342   0.508168
H  -5.668414  -0.488472   0.339592
H  -5.455932  -1.124974   2.000150
H  -3.415550  -1.178951   0.030966

