%chk=/home/boittier/MDCM/nms_sampling/methanol_geom.xyz.dir/methanol_461.chk
%nproc=8
%mem=16000MB
#p B2PLYPD3/Def2QZVP 

methanol

0 1
C  -5.182128  -1.256710   0.915598
O  -3.762711  -1.122464   0.872201
H  -5.527617  -2.196785   0.539849
H  -5.719982  -0.499989   0.381762
H  -5.475841  -1.157547   1.887034
H  -3.458647  -1.196338  -0.203804

