%chk=/home/boittier/MDCM/nms_sampling/methanol_geom.xyz.dir/methanol_3323.chk
%nproc=8
%mem=16000MB
#p B2PLYPD3/Def2QZVP 

methanol

0 1
C  -5.139756  -1.261247   0.932019
O  -3.783229  -1.123572   0.877518
H  -5.613658  -2.128099   0.623641
H  -5.600407  -0.468815   0.326669
H  -5.556077  -1.185245   1.779918
H  -3.569355  -1.205237  -0.402616
