%chk=/home/boittier/MDCM/nms_sampling/methanol_geom.xyz.dir/methanol_1554.chk
%nproc=8
%mem=16000MB
#p B2PLYPD3/Def2QZVP 

methanol

0 1
C  -5.184834  -1.250025   0.905405
O  -3.762486  -1.119650   0.882119
H  -5.475657  -2.166019   0.584021
H  -5.661235  -0.621475   0.370654
H  -5.443252  -1.165363   1.928237
H  -3.579394  -1.214228  -0.324165
