%chk=/home/boittier/MDCM/nms_sampling/methanol_geom.xyz.dir/methanol_1887.chk
%nproc=8
%mem=16000MB
#p B2PLYPD3/Def2QZVP 

methanol

0 1
C  -5.199839  -1.255301   0.926399
O  -3.758028  -1.126825   0.842436
H  -5.492944  -2.279828   0.503931
H  -5.666882  -0.381110   0.289510
H  -5.452894  -1.178187   1.989698
H  -3.434087  -1.159930   0.180773
