%chk=/home/boittier/MDCM/nms_sampling/methanol_geom.xyz.dir/methanol_1614.chk
%nproc=8
%mem=16000MB
#p B2PLYPD3/Def2QZVP 

methanol

0 1
C  -5.177186  -1.270572   0.916004
O  -3.771657  -1.121123   0.839627
H  -5.515865  -2.238473   0.533640
H  -5.661825  -0.349483   0.305350
H  -5.417990  -1.144618   2.063199
H  -3.495339  -1.179395   0.229416
