%chk=/home/boittier/MDCM/nms_sampling/methanol_geom.xyz.dir/methanol_1729.chk
%nproc=8
%mem=16000MB
#p B2PLYPD3/Def2QZVP 

methanol

0 1
C  -5.176219  -1.254543   0.922219
O  -3.760795  -1.117130   0.859846
H  -5.573750  -2.269723   0.549742
H  -5.691664  -0.466164   0.355072
H  -5.472774  -1.190297   1.904107
H  -3.545689  -1.231672  -0.077821
