%chk=/home/boittier/MDCM/nms_sampling/methanol_geom.xyz.dir/methanol_2459.chk
%nproc=8
%mem=16000MB
#p B2PLYPD3/Def2QZVP 

methanol

0 1
C  -5.151412  -1.259318   0.905943
O  -3.774576  -1.115947   0.840349
H  -5.420886  -2.337829   0.614837
H  -5.789525  -0.283019   0.271838
H  -5.538314  -1.225300   2.018312
H  -3.597652  -1.280012   0.338927
