%chk=/home/boittier/MDCM/nms_sampling/methanol_geom.xyz.dir/methanol_1939.chk
%nproc=8
%mem=16000MB
#p B2PLYPD3/Def2QZVP 

methanol

0 1
C  -5.183805  -1.253298   0.913647
O  -3.762024  -1.127151   0.874033
H  -5.535224  -2.149618   0.589182
H  -5.598343  -0.507797   0.387551
H  -5.536198  -1.177104   1.903408
H  -3.498619  -1.185478  -0.282096
