%chk=/home/boittier/MDCM/nms_sampling/methanol_geom.xyz.dir/methanol_2162.chk
%nproc=8
%mem=16000MB
#p B2PLYPD3/Def2QZVP 

methanol

0 1
C  -5.177204  -1.251461   0.905545
O  -3.759788  -1.117422   0.880086
H  -5.505223  -2.228815   0.582477
H  -5.752339  -0.536132   0.416930
H  -5.492704  -1.179830   1.865540
H  -3.540406  -1.243594  -0.268447

