%chk=/home/boittier/MDCM/nms_sampling/methanol_geom.xyz.dir/methanol_1097.chk
%nproc=8
%mem=16000MB
#p B2PLYPD3/Def2QZVP 

methanol

0 1
C  -5.177990  -1.254448   0.918263
O  -3.766060  -1.124330   0.853098
H  -5.532251  -2.275371   0.510459
H  -5.706203  -0.430080   0.366946
H  -5.480751  -1.157829   1.960269
H  -3.457584  -1.184205   0.049194

