%chk=/home/boittier/MDCM/nms_sampling/methanol_geom.xyz.dir/methanol_3070.chk
%nproc=8
%mem=16000MB
#p B2PLYPD3/Def2QZVP 

methanol

0 1
C  -5.168813  -1.243392   0.905923
O  -3.789562  -1.131997   0.881680
H  -5.323854  -2.211768   0.631280
H  -5.618144  -0.469409   0.383324
H  -5.517980  -1.154915   1.824313
H  -3.449908  -1.216682  -0.270524
