%chk=/home/boittier/MDCM/nms_sampling/methanol_geom.xyz.dir/methanol_2787.chk
%nproc=8
%mem=16000MB
#p B2PLYPD3/Def2QZVP 

methanol

0 1
C  -5.172640  -1.266140   0.896424
O  -3.779318  -1.113755   0.886645
H  -5.493678  -2.178139   0.615465
H  -5.717690  -0.594522   0.423068
H  -5.319156  -1.071309   1.906748
H  -3.508199  -1.223730  -0.351247
