%chk=/home/boittier/MDCM/nms_sampling/methanol_geom.xyz.dir/methanol_2189.chk
%nproc=8
%mem=16000MB
#p B2PLYPD3/Def2QZVP 

methanol

0 1
C  -5.183118  -1.263948   0.904700
O  -3.770512  -1.120785   0.873737
H  -5.502961  -2.160361   0.644170
H  -5.679282  -0.488929   0.339636
H  -5.381629  -1.161072   1.933644
H  -3.480530  -1.180620  -0.209427

