%chk=/home/boittier/MDCM/nms_sampling/methanol_geom.xyz.dir/methanol_646.chk
%nproc=8
%mem=16000MB
#p B2PLYPD3/Def2QZVP 

methanol

0 1
C  -5.171342  -1.257154   0.921228
O  -3.774072  -1.121555   0.855745
H  -5.489579  -2.244964   0.549456
H  -5.663975  -0.443225   0.303011
H  -5.463188  -1.152546   1.948614
H  -3.510507  -1.217448   0.006083
