%chk=/home/boittier/MDCM/nms_sampling/methanol_geom.xyz.dir/methanol_3152.chk
%nproc=8
%mem=16000MB
#p B2PLYPD3/Def2QZVP 

methanol

0 1
C  -5.173479  -1.259160   0.898648
O  -3.757716  -1.112823   0.893586
H  -5.568938  -2.072131   0.571919
H  -5.673472  -0.629725   0.476133
H  -5.530843  -1.180045   1.908955
H  -3.591381  -1.291237  -0.505600
