%chk=/home/boittier/MDCM/nms_sampling/methanol_geom.xyz.dir/methanol_3016.chk
%nproc=8
%mem=16000MB
#p B2PLYPD3/Def2QZVP 

methanol

0 1
C  -5.170639  -1.237968   0.925779
O  -3.764170  -1.125364   0.823961
H  -5.560670  -2.360314   0.392742
H  -5.626687  -0.453934   0.337954
H  -5.611055  -1.157202   2.146009
H  -3.500814  -1.250172   0.392001
