%chk=/home/boittier/MDCM/nms_sampling/methanol_geom.xyz.dir/methanol_1302.chk
%nproc=8
%mem=16000MB
#p B2PLYPD3/Def2QZVP 

methanol

0 1
C  -5.190540  -1.264093   0.921584
O  -3.756652  -1.117810   0.867151
H  -5.559409  -2.203564   0.545688
H  -5.683648  -0.456681   0.374378
H  -5.440751  -1.165998   1.874364
H  -3.495595  -1.211443  -0.175679
