%chk=/home/boittier/MDCM/nms_sampling/methanol_geom.xyz.dir/methanol_882.chk
%nproc=8
%mem=16000MB
#p B2PLYPD3/Def2QZVP 

methanol

0 1
C  -5.176203  -1.261749   0.919119
O  -3.770892  -1.120428   0.850428
H  -5.482937  -2.247666   0.529064
H  -5.689672  -0.397813   0.311661
H  -5.449994  -1.161946   1.979359
H  -3.496479  -1.215960   0.098941
