%chk=/home/boittier/MDCM/nms_sampling/methanol_geom.xyz.dir/methanol_660.chk
%nproc=8
%mem=16000MB
#p B2PLYPD3/Def2QZVP 

methanol

0 1
C  -5.174661  -1.257279   0.918449
O  -3.768415  -1.121031   0.853162
H  -5.523242  -2.251119   0.536272
H  -5.674397  -0.462461   0.317513
H  -5.455703  -1.151634   1.989562
H  -3.525684  -1.199826   0.037636
