%chk=/home/boittier/MDCM/nms_sampling/methanol_geom.xyz.dir/methanol_1442.chk
%nproc=8
%mem=16000MB
#p B2PLYPD3/Def2QZVP 

methanol

0 1
C  -5.180501  -1.267010   0.917048
O  -3.767899  -1.121314   0.852467
H  -5.473981  -2.234658   0.563086
H  -5.724544  -0.393322   0.275248
H  -5.446252  -1.128226   1.977259
H  -3.470254  -1.194594   0.094072

