%chk=/home/boittier/MDCM/nms_sampling/methanol_geom.xyz.dir/methanol_1010.chk
%nproc=8
%mem=16000MB
#p B2PLYPD3/Def2QZVP 

methanol

0 1
C  -5.176812  -1.261342   0.917763
O  -3.765807  -1.120112   0.853189
H  -5.560205  -2.217740   0.521103
H  -5.691677  -0.444380   0.337232
H  -5.445492  -1.175824   1.999853
H  -3.495182  -1.195832   0.030011
