%chk=/home/boittier/MDCM/nms_sampling/methanol_geom.xyz.dir/methanol_3532.chk
%nproc=8
%mem=16000MB
#p B2PLYPD3/Def2QZVP 

methanol

0 1
C  -5.187634  -1.238403   0.895081
O  -3.751692  -1.130261   0.900427
H  -5.556759  -2.093491   0.600436
H  -5.700235  -0.653310   0.492339
H  -5.572207  -1.237079   1.866972
H  -3.461542  -1.160053  -0.576281
