%chk=/home/boittier/MDCM/nms_sampling/methanol_geom.xyz.dir/methanol_2165.chk
%nproc=8
%mem=16000MB
#p B2PLYPD3/Def2QZVP 

methanol

0 1
C  -5.190995  -1.250981   0.920043
O  -3.760527  -1.128078   0.869301
H  -5.469277  -2.218741   0.568584
H  -5.655140  -0.479912   0.338205
H  -5.522582  -1.149974   1.869663
H  -3.464805  -1.182114  -0.175411
