%chk=/home/boittier/MDCM/nms_sampling/methanol_geom.xyz.dir/methanol_3007.chk
%nproc=8
%mem=16000MB
#p B2PLYPD3/Def2QZVP 

methanol

0 1
C  -5.150053  -1.268855   0.937916
O  -3.781123  -1.115853   0.830874
H  -5.513272  -2.242573   0.469214
H  -5.682254  -0.255521   0.239668
H  -5.493553  -1.251684   1.992693
H  -3.562753  -1.267607   0.315771

