%chk=/home/boittier/MDCM/nms_sampling/methanol_geom.xyz.dir/methanol_3122.chk
%nproc=8
%mem=16000MB
#p B2PLYPD3/Def2QZVP 

methanol

0 1
C  -5.190280  -1.267461   0.912160
O  -3.765115  -1.113883   0.895238
H  -5.520333  -2.097064   0.538289
H  -5.772294  -0.580687   0.418007
H  -5.315523  -1.165755   1.802373
H  -3.444456  -1.210054  -0.492052
