%chk=/home/boittier/MDCM/nms_sampling/methanol_geom.xyz.dir/methanol_812.chk
%nproc=8
%mem=16000MB
#p B2PLYPD3/Def2QZVP 

methanol

0 1
C  -5.179381  -1.250630   0.919802
O  -3.764229  -1.123074   0.847776
H  -5.519745  -2.297790   0.510804
H  -5.686832  -0.413068   0.349665
H  -5.503293  -1.185114   1.978255
H  -3.480686  -1.215117   0.117234
