%chk=/home/boittier/MDCM/nms_sampling/methanol_geom.xyz.dir/methanol_727.chk
%nproc=8
%mem=16000MB
#p B2PLYPD3/Def2QZVP 

methanol

0 1
C  -5.190563  -1.257905   0.914200
O  -3.760211  -1.118425   0.871254
H  -5.506744  -2.206076   0.554861
H  -5.704167  -0.511567   0.363917
H  -5.421537  -1.163462   1.902976
H  -3.494198  -1.215452  -0.185464

