%chk=/home/boittier/MDCM/nms_sampling/methanol_geom.xyz.dir/methanol_2932.chk
%nproc=8
%mem=16000MB
#p B2PLYPD3/Def2QZVP 

methanol

0 1
C  -5.185805  -1.235784   0.912336
O  -3.762759  -1.124212   0.830001
H  -5.366912  -2.514055   0.478002
H  -5.738505  -0.417177   0.327844
H  -5.499523  -1.107290   2.058976
H  -3.547828  -1.219232   0.471033

