%chk=/home/boittier/MDCM/nms_sampling/methanol_geom.xyz.dir/methanol_3413.chk
%nproc=8
%mem=16000MB
#p B2PLYPD3/Def2QZVP 

methanol

0 1
C  -5.188661  -1.265545   0.894034
O  -3.778101  -1.125870   0.837248
H  -5.426806  -2.238496   0.563081
H  -5.674101  -0.345090   0.330067
H  -5.400908  -1.121540   2.181334
H  -3.356206  -1.187880   0.353146

