%chk=/home/boittier/MDCM/nms_sampling/methanol_geom.xyz.dir/methanol_1412.chk
%nproc=8
%mem=16000MB
#p B2PLYPD3/Def2QZVP 

methanol

0 1
C  -5.176549  -1.266308   0.928252
O  -3.771189  -1.117024   0.839129
H  -5.525936  -2.318307   0.473446
H  -5.704636  -0.374985   0.312316
H  -5.388674  -1.118810   1.986187
H  -3.495611  -1.208381   0.225217

