%chk=/home/boittier/MDCM/nms_sampling/methanol_geom.xyz.dir/methanol_787.chk
%nproc=8
%mem=16000MB
#p B2PLYPD3/Def2QZVP 

methanol

0 1
C  -5.190121  -1.254624   0.909002
O  -3.760751  -1.124604   0.869568
H  -5.502372  -2.178590   0.563115
H  -5.686266  -0.507304   0.365060
H  -5.468151  -1.173745   1.952566
H  -3.461838  -1.181633  -0.157114
