%chk=/home/boittier/MDCM/nms_sampling/methanol_geom.xyz.dir/methanol_1277.chk
%nproc=8
%mem=16000MB
#p B2PLYPD3/Def2QZVP 

methanol

0 1
C  -5.177968  -1.258179   0.913811
O  -3.759945  -1.119016   0.877470
H  -5.492063  -2.147830   0.575464
H  -5.710355  -0.499377   0.348921
H  -5.502907  -1.216657   1.876588
H  -3.564872  -1.226014  -0.262266
