%chk=/home/boittier/MDCM/nms_sampling/methanol_geom.xyz.dir/methanol_3284.chk
%nproc=8
%mem=16000MB
#p B2PLYPD3/Def2QZVP 

methanol

0 1
C  -5.185404  -1.249418   0.914562
O  -3.776179  -1.130189   0.821934
H  -5.475740  -2.321407   0.524116
H  -5.551247  -0.323128   0.305014
H  -5.431689  -1.211011   2.160928
H  -3.466233  -1.155947   0.448424

