%chk=/home/boittier/MDCM/nms_sampling/methanol_geom.xyz.dir/methanol_3482.chk
%nproc=8
%mem=16000MB
#p B2PLYPD3/Def2QZVP 

methanol

0 1
C  -5.173723  -1.239665   0.917871
O  -3.761985  -1.128186   0.832424
H  -5.507095  -2.289162   0.441839
H  -5.638824  -0.423796   0.330815
H  -5.580478  -1.255909   2.131497
H  -3.560832  -1.191978   0.319407
