%chk=/home/boittier/MDCM/nms_sampling/methanol_geom.xyz.dir/methanol_756.chk
%nproc=8
%mem=16000MB
#p B2PLYPD3/Def2QZVP 

methanol

0 1
C  -5.176986  -1.249858   0.916975
O  -3.764244  -1.124226   0.865195
H  -5.555873  -2.204777   0.545226
H  -5.639952  -0.512822   0.373350
H  -5.509964  -1.187041   1.940263
H  -3.511191  -1.198050  -0.156631

