%chk=/home/boittier/MDCM/nms_sampling/methanol_geom.xyz.dir/methanol_2082.chk
%nproc=8
%mem=16000MB
#p B2PLYPD3/Def2QZVP 

methanol

0 1
C  -5.170079  -1.256429   0.915675
O  -3.777819  -1.120617   0.845018
H  -5.520296  -2.271653   0.528914
H  -5.606537  -0.433165   0.347999
H  -5.402921  -1.173645   2.042190
H  -3.553388  -1.199080   0.128652

