%chk=/home/boittier/MDCM/nms_sampling/methanol_geom.xyz.dir/methanol_2401.chk
%nproc=8
%mem=16000MB
#p B2PLYPD3/Def2QZVP 

methanol

0 1
C  -5.169180  -1.266201   0.927615
O  -3.756047  -1.113090   0.874741
H  -5.605434  -2.107038   0.594562
H  -5.635388  -0.519231   0.295055
H  -5.582653  -1.172804   1.865831
H  -3.611414  -1.294944  -0.336126
