%chk=/home/boittier/MDCM/nms_sampling/methanol_geom.xyz.dir/methanol_1415.chk
%nproc=8
%mem=16000MB
#p B2PLYPD3/Def2QZVP 

methanol

0 1
C  -5.176711  -1.252610   0.909204
O  -3.769100  -1.126437   0.876485
H  -5.537916  -2.152270   0.536034
H  -5.727453  -0.541520   0.398199
H  -5.445756  -1.190174   1.924790
H  -3.430393  -1.151266  -0.251658

