%chk=/home/boittier/MDCM/nms_sampling/methanol_geom.xyz.dir/methanol_3507.chk
%nproc=8
%mem=16000MB
#p B2PLYPD3/Def2QZVP 

methanol

0 1
C  -5.176446  -1.268883   0.913356
O  -3.769387  -1.127403   0.893344
H  -5.566756  -1.966706   0.580974
H  -5.651669  -0.539993   0.386046
H  -5.503281  -1.172663   1.855767
H  -3.406987  -1.160282  -0.541838

