%chk=/home/boittier/MDCM/nms_sampling/methanol_geom.xyz.dir/methanol_1901.chk
%nproc=8
%mem=16000MB
#p B2PLYPD3/Def2QZVP 

methanol

0 1
C  -5.197583  -1.247303   0.907666
O  -3.758628  -1.123192   0.871979
H  -5.466541  -2.254557   0.554321
H  -5.721292  -0.500567   0.412058
H  -5.447860  -1.181815   1.894131
H  -3.436251  -1.206841  -0.156403
