%chk=/home/boittier/MDCM/nms_sampling/methanol_geom.xyz.dir/methanol_97.chk
%nproc=8
%mem=16000MB
#p B2PLYPD3/Def2QZVP 

methanol

0 1
C  -5.182970  -1.254289   0.917897
O  -3.766287  -1.121210   0.869821
H  -5.499213  -2.208537   0.577248
H  -5.630129  -0.491528   0.359311
H  -5.466537  -1.172492   1.883687
H  -3.520502  -1.223542  -0.202329
