%chk=/home/boittier/MDCM/nms_sampling/methanol_geom.xyz.dir/methanol_2049.chk
%nproc=8
%mem=16000MB
#p B2PLYPD3/Def2QZVP 

methanol

0 1
C  -5.164469  -1.254671   0.909946
O  -3.776946  -1.124145   0.846958
H  -5.469803  -2.233764   0.546403
H  -5.680618  -0.423189   0.294370
H  -5.520234  -1.166488   2.071755
H  -3.488284  -1.225835   0.168131

