%chk=/home/boittier/MDCM/nms_sampling/methanol_geom.xyz.dir/methanol_831.chk
%nproc=8
%mem=16000MB
#p B2PLYPD3/Def2QZVP 

methanol

0 1
C  -5.184006  -1.253170   0.913416
O  -3.764633  -1.122161   0.849985
H  -5.513354  -2.277230   0.521554
H  -5.662825  -0.462785   0.354546
H  -5.465042  -1.145554   2.024705
H  -3.491728  -1.208002   0.091835

