%chk=/home/boittier/MDCM/nms_sampling/methanol_geom.xyz.dir/methanol_183.chk
%nproc=8
%mem=16000MB
#p B2PLYPD3/Def2QZVP 

methanol

0 1
C  -5.181021  -1.254744   0.909337
O  -3.763994  -1.124573   0.869091
H  -5.519338  -2.174279   0.567818
H  -5.672695  -0.496130   0.375018
H  -5.513176  -1.169381   1.949910
H  -3.466992  -1.202391  -0.164522

