%chk=/home/boittier/MDCM/nms_sampling/methanol_geom.xyz.dir/methanol_2839.chk
%nproc=8
%mem=16000MB
#p B2PLYPD3/Def2QZVP 

methanol

0 1
C  -5.200835  -1.257035   0.908456
O  -3.745219  -1.123964   0.893014
H  -5.521123  -2.209634   0.564458
H  -5.849980  -0.595705   0.417372
H  -5.454150  -1.086341   1.787107
H  -3.421688  -1.131949  -0.419115
