%chk=/home/boittier/MDCM/nms_sampling/methanol_geom.xyz.dir/methanol_1110.chk
%nproc=8
%mem=16000MB
#p B2PLYPD3/Def2QZVP 

methanol

0 1
C  -5.174199  -1.252222   0.917213
O  -3.766024  -1.118851   0.854812
H  -5.556272  -2.264072   0.540092
H  -5.668293  -0.486036   0.345015
H  -5.471558  -1.174266   1.984206
H  -3.529561  -1.232138   0.000071
