%chk=/home/boittier/MDCM/nms_sampling/methanol_geom.xyz.dir/methanol_2395.chk
%nproc=8
%mem=16000MB
#p B2PLYPD3/Def2QZVP 

methanol

0 1
C  -5.173321  -1.257877   0.914990
O  -3.761994  -1.117127   0.863124
H  -5.575960  -2.182506   0.593147
H  -5.637950  -0.487303   0.335328
H  -5.520515  -1.195103   1.964147
H  -3.560221  -1.257702  -0.133291

