%chk=/home/boittier/MDCM/nms_sampling/methanol_geom.xyz.dir/methanol_1828.chk
%nproc=8
%mem=16000MB
#p B2PLYPD3/Def2QZVP 

methanol

0 1
C  -5.177791  -1.254747   0.921738
O  -3.766911  -1.122465   0.870914
H  -5.540000  -2.220533   0.526639
H  -5.733125  -0.510089   0.360873
H  -5.462161  -1.142942   1.864444
H  -3.433403  -1.198245  -0.198387

