%chk=/home/boittier/MDCM/nms_sampling/methanol_geom.xyz.dir/methanol_415.chk
%nproc=8
%mem=16000MB
#p B2PLYPD3/Def2QZVP 

methanol

0 1
C  -5.176457  -1.253561   0.921868
O  -3.771012  -1.120164   0.854991
H  -5.516837  -2.274267   0.523376
H  -5.676041  -0.472063   0.328497
H  -5.428070  -1.156911   1.951503
H  -3.499724  -1.215150   0.008592

