%chk=/home/boittier/MDCM/nms_sampling/methanol_geom.xyz.dir/methanol_255.chk
%nproc=8
%mem=16000MB
#p B2PLYPD3/Def2QZVP 

methanol

0 1
C  -5.173413  -1.248911   0.914926
O  -3.774056  -1.124115   0.872464
H  -5.489716  -2.227870   0.561119
H  -5.669917  -0.528425   0.373726
H  -5.471354  -1.144921   1.885473
H  -3.476560  -1.210203  -0.211362
