%chk=/home/boittier/MDCM/nms_sampling/methanol_geom.xyz.dir/methanol_2591.chk
%nproc=8
%mem=16000MB
#p B2PLYPD3/Def2QZVP 

methanol

0 1
C  -5.160937  -1.246320   0.909827
O  -3.788234  -1.126377   0.827647
H  -5.514321  -2.360315   0.468556
H  -5.605385  -0.417947   0.383009
H  -5.462669  -1.113216   2.162914
H  -3.447812  -1.211353   0.385384
