%chk=/home/boittier/MDCM/nms_sampling/methanol_geom.xyz.dir/methanol_1935.chk
%nproc=8
%mem=16000MB
#p B2PLYPD3/Def2QZVP 

methanol

0 1
C  -5.178732  -1.248580   0.910101
O  -3.769708  -1.119377   0.855181
H  -5.455704  -2.289295   0.561957
H  -5.671694  -0.476649   0.332541
H  -5.446977  -1.178913   1.997397
H  -3.541926  -1.242584   0.055616
