%chk=/home/boittier/MDCM/nms_sampling/methanol_geom.xyz.dir/methanol_1798.chk
%nproc=8
%mem=16000MB
#p B2PLYPD3/Def2QZVP 

methanol

0 1
C  -5.195903  -1.252645   0.918259
O  -3.753105  -1.126829   0.842471
H  -5.580077  -2.283904   0.554399
H  -5.675199  -0.411539   0.307387
H  -5.487789  -1.181903   2.035060
H  -3.428436  -1.154768   0.162731

