%chk=/home/boittier/MDCM/nms_sampling/methanol_geom.xyz.dir/methanol_1115.chk
%nproc=8
%mem=16000MB
#p B2PLYPD3/Def2QZVP 

methanol

0 1
C  -5.188462  -1.258232   0.918948
O  -3.759484  -1.123321   0.848228
H  -5.537954  -2.237314   0.519330
H  -5.681333  -0.421543   0.318720
H  -5.467093  -1.180924   2.015457
H  -3.469833  -1.181078   0.102007

