%chk=/home/boittier/MDCM/nms_sampling/methanol_geom.xyz.dir/methanol_2671.chk
%nproc=8
%mem=16000MB
#p B2PLYPD3/Def2QZVP 

methanol

0 1
C  -5.191878  -1.256685   0.914525
O  -3.751707  -1.129175   0.870029
H  -5.643734  -2.128585   0.629908
H  -5.659937  -0.474948   0.345917
H  -5.516014  -1.223636   1.926013
H  -3.412652  -1.126923  -0.248705
