%chk=/home/boittier/MDCM/nms_sampling/methanol_geom.xyz.dir/methanol_2536.chk
%nproc=8
%mem=16000MB
#p B2PLYPD3/Def2QZVP 

methanol

0 1
C  -5.200775  -1.249718   0.920931
O  -3.755050  -1.124839   0.893143
H  -5.598795  -2.171818   0.578426
H  -5.687890  -0.562947   0.455431
H  -5.446821  -1.176370   1.722838
H  -3.356567  -1.181067  -0.552216

