%chk=/home/boittier/MDCM/nms_sampling/methanol_geom.xyz.dir/methanol_3199.chk
%nproc=8
%mem=16000MB
#p B2PLYPD3/Def2QZVP 

methanol

0 1
C  -5.179184  -1.273381   0.914792
O  -3.774251  -1.115947   0.874986
H  -5.611006  -2.088702   0.695155
H  -5.595831  -0.488813   0.296016
H  -5.352785  -1.165366   1.909576
H  -3.469328  -1.215454  -0.332286

