%chk=/home/boittier/MDCM/nms_sampling/methanol_geom.xyz.dir/methanol_157.chk
%nproc=8
%mem=16000MB
#p B2PLYPD3/Def2QZVP 

methanol

0 1
C  -5.169212  -1.250076   0.911257
O  -3.773271  -1.125578   0.856366
H  -5.487580  -2.276314   0.524303
H  -5.700140  -0.455022   0.379019
H  -5.486645  -1.160157   1.976905
H  -3.491016  -1.185678   0.035230

