%chk=/home/boittier/MDCM/nms_sampling/methanol_geom.xyz.dir/methanol_45.chk
%nproc=8
%mem=16000MB
#p B2PLYPD3/Def2QZVP 

methanol

0 1
C  -5.184447  -1.253468   0.906816
O  -3.767898  -1.123365   0.872281
H  -5.515562  -2.185168   0.568734
H  -5.683624  -0.521703   0.393015
H  -5.433888  -1.170884   1.941510
H  -3.441078  -1.193269  -0.197256
