%chk=/home/boittier/MDCM/nms_sampling/methanol_geom.xyz.dir/methanol_2844.chk
%nproc=8
%mem=16000MB
#p B2PLYPD3/Def2QZVP 

methanol

0 1
C  -5.181194  -1.237470   0.921693
O  -3.760462  -1.132863   0.878642
H  -5.573758  -2.096625   0.588055
H  -5.501341  -0.566613   0.376920
H  -5.647223  -1.250340   1.883907
H  -3.499036  -1.203345  -0.423123

