%chk=/home/boittier/MDCM/nms_sampling/methanol_geom.xyz.dir/methanol_1717.chk
%nproc=8
%mem=16000MB
#p B2PLYPD3/Def2QZVP 

methanol

0 1
C  -5.182459  -1.261181   0.911122
O  -3.770127  -1.118319   0.859090
H  -5.487824  -2.256266   0.557564
H  -5.754006  -0.475253   0.313123
H  -5.345520  -1.142060   1.978795
H  -3.477129  -1.184207   0.020886

