%chk=/home/boittier/MDCM/nms_sampling/methanol_geom.xyz.dir/methanol_1699.chk
%nproc=8
%mem=16000MB
#p B2PLYPD3/Def2QZVP 

methanol

0 1
C  -5.162399  -1.260689   0.926046
O  -3.776951  -1.120422   0.873682
H  -5.532924  -2.143848   0.560693
H  -5.649929  -0.464514   0.341955
H  -5.481300  -1.199479   1.834992
H  -3.516311  -1.229738  -0.279486

