%chk=/home/boittier/MDCM/nms_sampling/methanol_geom.xyz.dir/methanol_2905.chk
%nproc=8
%mem=16000MB
#p B2PLYPD3/Def2QZVP 

methanol

0 1
C  -5.148863  -1.232285   0.937984
O  -3.783922  -1.128293   0.880052
H  -5.586338  -2.268835   0.515309
H  -5.633395  -0.600503   0.394758
H  -5.565152  -1.143664   1.729919
H  -3.457197  -1.225383  -0.423963

