%chk=/home/boittier/MDCM/nms_sampling/methanol_geom.xyz.dir/methanol_441.chk
%nproc=8
%mem=16000MB
#p B2PLYPD3/Def2QZVP 

methanol

0 1
C  -5.183840  -1.254350   0.915634
O  -3.769432  -1.124944   0.856089
H  -5.517356  -2.230750   0.553930
H  -5.670629  -0.467721   0.318279
H  -5.437422  -1.157193   1.990250
H  -3.430332  -1.181525   0.003607
