%chk=/home/boittier/MDCM/nms_sampling/methanol_geom.xyz.dir/methanol_2475.chk
%nproc=8
%mem=16000MB
#p B2PLYPD3/Def2QZVP 

methanol

0 1
C  -5.211597  -1.268920   0.920220
O  -3.746756  -1.119714   0.819602
H  -5.579484  -2.310775   0.607957
H  -5.616323  -0.306899   0.197709
H  -5.397316  -1.170502   2.152141
H  -3.493745  -1.166398   0.452082

