%chk=/home/boittier/MDCM/nms_sampling/methanol_geom.xyz.dir/methanol_3108.chk
%nproc=8
%mem=16000MB
#p B2PLYPD3/Def2QZVP 

methanol

0 1
C  -5.166956  -1.246492   0.914869
O  -3.784945  -1.130640   0.900890
H  -5.408500  -2.112630   0.647527
H  -5.648348  -0.585688   0.345141
H  -5.448153  -1.187591   1.734151
H  -3.497385  -1.152651  -0.581667
