%chk=/home/boittier/MDCM/nms_sampling/methanol_geom.xyz.dir/methanol_2798.chk
%nproc=8
%mem=16000MB
#p B2PLYPD3/Def2QZVP 

methanol

0 1
C  -5.186255  -1.271958   0.915522
O  -3.749147  -1.115749   0.829880
H  -5.540620  -2.280937   0.525971
H  -5.838595  -0.300508   0.227972
H  -5.449983  -1.215496   2.108027
H  -3.511641  -1.188457   0.433180
