%chk=/home/boittier/MDCM/nms_sampling/methanol_geom.xyz.dir/methanol_2736.chk
%nproc=8
%mem=16000MB
#p B2PLYPD3/Def2QZVP 

methanol

0 1
C  -5.198459  -1.273472   0.917070
O  -3.752263  -1.112417   0.891188
H  -5.525212  -2.081602   0.634639
H  -5.591645  -0.501649   0.400698
H  -5.469135  -1.152071   1.771799
H  -3.568937  -1.279616  -0.526963
