%chk=/home/boittier/MDCM/nms_sampling/methanol_geom.xyz.dir/methanol_1022.chk
%nproc=8
%mem=16000MB
#p B2PLYPD3/Def2QZVP 

methanol

0 1
C  -5.179772  -1.249299   0.908734
O  -3.769584  -1.123271   0.868337
H  -5.481295  -2.212906   0.546513
H  -5.660323  -0.539907   0.378265
H  -5.470090  -1.152388   1.963401
H  -3.492774  -1.214720  -0.141536
