%chk=/home/boittier/MDCM/nms_sampling/methanol_geom.xyz.dir/methanol_3263.chk
%nproc=8
%mem=16000MB
#p B2PLYPD3/Def2QZVP 

methanol

0 1
C  -5.213819  -1.250288   0.927727
O  -3.754483  -1.131220   0.888721
H  -5.587673  -2.155440   0.672598
H  -5.572856  -0.548931   0.345712
H  -5.411806  -1.170535   1.728759
H  -3.369535  -1.112388  -0.550489

