%chk=/home/boittier/MDCM/nms_sampling/methanol_geom.xyz.dir/methanol_694.chk
%nproc=8
%mem=16000MB
#p B2PLYPD3/Def2QZVP 

methanol

0 1
C  -5.179613  -1.255724   0.913684
O  -3.763830  -1.121342   0.850348
H  -5.513797  -2.256554   0.564932
H  -5.672784  -0.429470   0.315074
H  -5.480090  -1.184550   2.013729
H  -3.525416  -1.209375   0.090455

