%chk=/home/boittier/MDCM/nms_sampling/methanol_geom.xyz.dir/methanol_331.chk
%nproc=8
%mem=16000MB
#p B2PLYPD3/Def2QZVP 

methanol

0 1
C  -5.184864  -1.257998   0.919266
O  -3.765754  -1.123406   0.849016
H  -5.505808  -2.281362   0.546766
H  -5.680873  -0.403567   0.316753
H  -5.461139  -1.140794   1.973880
H  -3.453797  -1.194801   0.104553
