%chk=/home/boittier/MDCM/nms_sampling/methanol_geom.xyz.dir/methanol_1391.chk
%nproc=8
%mem=16000MB
#p B2PLYPD3/Def2QZVP 

methanol

0 1
C  -5.193712  -1.262707   0.922629
O  -3.756952  -1.119963   0.873225
H  -5.549107  -2.134658   0.606019
H  -5.611821  -0.526291   0.296256
H  -5.445593  -1.161165   1.890788
H  -3.529686  -1.198854  -0.290091

