%chk=/home/boittier/MDCM/nms_sampling/methanol_geom.xyz.dir/methanol_3325.chk
%nproc=8
%mem=16000MB
#p B2PLYPD3/Def2QZVP 

methanol

0 1
C  -5.196389  -1.253756   0.900359
O  -3.749556  -1.127257   0.873235
H  -5.510185  -2.251430   0.540300
H  -5.839857  -0.463509   0.456914
H  -5.505393  -1.150981   1.899181
H  -3.368736  -1.146864  -0.125528
