%chk=/home/boittier/MDCM/nms_sampling/methanol_geom.xyz.dir/methanol_1005.chk
%nproc=8
%mem=16000MB
#p B2PLYPD3/Def2QZVP 

methanol

0 1
C  -5.176749  -1.252186   0.909828
O  -3.766498  -1.124302   0.872852
H  -5.497918  -2.170832   0.577966
H  -5.672020  -0.523239   0.358558
H  -5.524987  -1.165995   1.932757
H  -3.488728  -1.215375  -0.208981

