%chk=/home/boittier/MDCM/nms_sampling/methanol_geom.xyz.dir/methanol_196.chk
%nproc=8
%mem=16000MB
#p B2PLYPD3/Def2QZVP 

methanol

0 1
C  -5.175763  -1.253969   0.907333
O  -3.763137  -1.118661   0.852355
H  -5.498942  -2.282421   0.540091
H  -5.732206  -0.446341   0.355751
H  -5.483155  -1.181077   2.022012
H  -3.537279  -1.230770   0.108455
