%chk=/home/boittier/MDCM/nms_sampling/methanol_geom.xyz.dir/methanol_312.chk
%nproc=8
%mem=16000MB
#p B2PLYPD3/Def2QZVP 

methanol

0 1
C  -5.169667  -1.257610   0.918697
O  -3.772517  -1.121323   0.866303
H  -5.525543  -2.216423   0.547124
H  -5.671975  -0.468183   0.372377
H  -5.468447  -1.160615   1.894646
H  -3.504971  -1.211746  -0.148079
