%chk=/home/boittier/MDCM/nms_sampling/methanol_geom.xyz.dir/methanol_161.chk
%nproc=8
%mem=16000MB
#p B2PLYPD3/Def2QZVP 

methanol

0 1
C  -5.173758  -1.256438   0.906614
O  -3.771003  -1.119879   0.852626
H  -5.486010  -2.280480   0.544884
H  -5.709341  -0.461008   0.351594
H  -5.433390  -1.140538   2.031525
H  -3.522605  -1.208363   0.101762
