%chk=/home/boittier/MDCM/nms_sampling/methanol_geom.xyz.dir/methanol_3175.chk
%nproc=8
%mem=16000MB
#p B2PLYPD3/Def2QZVP 

methanol

0 1
C  -5.190505  -1.247597   0.930199
O  -3.775379  -1.128926   0.827140
H  -5.570589  -2.308675   0.516726
H  -5.612472  -0.411605   0.218198
H  -5.395760  -1.160412   2.102878
H  -3.307809  -1.169564   0.327834

