%chk=/home/boittier/MDCM/nms_sampling/methanol_geom.xyz.dir/methanol_2724.chk
%nproc=8
%mem=16000MB
#p B2PLYPD3/Def2QZVP 

methanol

0 1
C  -5.176248  -1.251510   0.906704
O  -3.778027  -1.131557   0.856895
H  -5.337393  -2.226815   0.543120
H  -5.707158  -0.406584   0.307915
H  -5.546963  -1.136800   2.000511
H  -3.411428  -1.200421   0.106317

