%chk=/home/boittier/MDCM/nms_sampling/methanol_geom.xyz.dir/methanol_883.chk
%nproc=8
%mem=16000MB
#p B2PLYPD3/Def2QZVP 

methanol

0 1
C  -5.188883  -1.259876   0.912202
O  -3.760319  -1.118228   0.856350
H  -5.496741  -2.265949   0.532703
H  -5.731003  -0.464247   0.342369
H  -5.426189  -1.133944   1.985124
H  -3.491461  -1.213003   0.042870
