%chk=/home/boittier/MDCM/nms_sampling/methanol_geom.xyz.dir/methanol_1589.chk
%nproc=8
%mem=16000MB
#p B2PLYPD3/Def2QZVP 

methanol

0 1
C  -5.192112  -1.266287   0.920605
O  -3.764673  -1.122294   0.874319
H  -5.544760  -2.123090   0.570403
H  -5.628436  -0.514052   0.340041
H  -5.395911  -1.137769   1.890505
H  -3.462416  -1.166371  -0.291870
