%chk=/home/boittier/MDCM/nms_sampling/methanol_geom.xyz.dir/methanol_2268.chk
%nproc=8
%mem=16000MB
#p B2PLYPD3/Def2QZVP 

methanol

0 1
C  -5.199791  -1.254683   0.905304
O  -3.757636  -1.123359   0.844620
H  -5.487329  -2.316798   0.549534
H  -5.717228  -0.434648   0.334589
H  -5.446977  -1.111071   2.073127
H  -3.410673  -1.194919   0.219159
