%chk=/home/boittier/MDCM/nms_sampling/methanol_geom.xyz.dir/methanol_1973.chk
%nproc=8
%mem=16000MB
#p B2PLYPD3/Def2QZVP 

methanol

0 1
C  -5.174294  -1.249306   0.907615
O  -3.776322  -1.125146   0.845625
H  -5.397793  -2.345295   0.503285
H  -5.724189  -0.413075   0.356704
H  -5.435061  -1.147920   2.031159
H  -3.503446  -1.182665   0.242840
