%chk=/home/boittier/MDCM/nms_sampling/methanol_geom.xyz.dir/methanol_670.chk
%nproc=8
%mem=16000MB
#p B2PLYPD3/Def2QZVP 

methanol

0 1
C  -5.183380  -1.248235   0.910486
O  -3.765873  -1.124414   0.866481
H  -5.482992  -2.218199   0.588926
H  -5.650879  -0.500943   0.346461
H  -5.497252  -1.181478   1.946849
H  -3.487280  -1.216415  -0.124045

