%chk=/home/boittier/MDCM/nms_sampling/methanol_geom.xyz.dir/methanol_1934.chk
%nproc=8
%mem=16000MB
#p B2PLYPD3/Def2QZVP 

methanol

0 1
C  -5.188298  -1.252750   0.913228
O  -3.763325  -1.123521   0.875181
H  -5.548778  -2.189884   0.549598
H  -5.605225  -0.569429   0.427542
H  -5.450178  -1.131060   1.906714
H  -3.500103  -1.185671  -0.300224
