%chk=/home/boittier/MDCM/nms_sampling/methanol_geom.xyz.dir/methanol_948.chk
%nproc=8
%mem=16000MB
#p B2PLYPD3/Def2QZVP 

methanol

0 1
C  -5.174394  -1.252992   0.912428
O  -3.766095  -1.122497   0.873217
H  -5.504036  -2.204249   0.589379
H  -5.697951  -0.501261   0.359329
H  -5.489622  -1.186333   1.888249
H  -3.525703  -1.201601  -0.210565

