%chk=/home/boittier/MDCM/nms_sampling/methanol_geom.xyz.dir/methanol_2602.chk
%nproc=8
%mem=16000MB
#p B2PLYPD3/Def2QZVP 

methanol

0 1
C  -5.197919  -1.247812   0.898817
O  -3.754788  -1.112630   0.896114
H  -5.451703  -2.247579   0.641320
H  -5.748985  -0.636267   0.428322
H  -5.380291  -1.153152   1.800876
H  -3.558703  -1.259754  -0.455843
