%chk=/home/boittier/MDCM/nms_sampling/methanol_geom.xyz.dir/methanol_3041.chk
%nproc=8
%mem=16000MB
#p B2PLYPD3/Def2QZVP 

methanol

0 1
C  -5.167504  -1.260862   0.908706
O  -3.772220  -1.129450   0.828079
H  -5.525041  -2.321978   0.490696
H  -5.797453  -0.293238   0.330511
H  -5.515022  -1.139215   2.124742
H  -3.356465  -1.144524   0.461623
