%chk=/home/boittier/MDCM/nms_sampling/methanol_geom.xyz.dir/methanol_297.chk
%nproc=8
%mem=16000MB
#p B2PLYPD3/Def2QZVP 

methanol

0 1
C  -5.177980  -1.258210   0.913051
O  -3.763632  -1.119873   0.871441
H  -5.552342  -2.170853   0.592346
H  -5.685825  -0.500947   0.351392
H  -5.478491  -1.183408   1.916768
H  -3.497700  -1.219476  -0.213793
