%chk=/home/boittier/MDCM/nms_sampling/methanol_geom.xyz.dir/methanol_2334.chk
%nproc=8
%mem=16000MB
#p B2PLYPD3/Def2QZVP 

methanol

0 1
C  -5.176678  -1.265505   0.919421
O  -3.760275  -1.120458   0.869197
H  -5.570798  -2.119321   0.555796
H  -5.644162  -0.488032   0.345077
H  -5.515592  -1.172983   1.927888
H  -3.546461  -1.204768  -0.222482

