%chk=/home/boittier/MDCM/nms_sampling/methanol_geom.xyz.dir/methanol_1059.chk
%nproc=8
%mem=16000MB
#p B2PLYPD3/Def2QZVP 

methanol

0 1
C  -5.183462  -1.258540   0.917318
O  -3.760032  -1.119428   0.864507
H  -5.577740  -2.213146   0.554785
H  -5.677018  -0.501662   0.361473
H  -5.469330  -1.146698   1.934686
H  -3.486956  -1.214924  -0.141023
