%chk=/home/boittier/MDCM/nms_sampling/methanol_geom.xyz.dir/methanol_1433.chk
%nproc=8
%mem=16000MB
#p B2PLYPD3/Def2QZVP 

methanol

0 1
C  -5.164668  -1.244988   0.908624
O  -3.776316  -1.129794   0.877619
H  -5.454649  -2.181471   0.565103
H  -5.714439  -0.499908   0.387586
H  -5.519612  -1.220987   1.881068
H  -3.475865  -1.170460  -0.235090

