%chk=/home/boittier/MDCM/nms_sampling/methanol_geom.xyz.dir/methanol_1642.chk
%nproc=8
%mem=16000MB
#p B2PLYPD3/Def2QZVP 

methanol

0 1
C  -5.178226  -1.244049   0.923653
O  -3.764669  -1.121945   0.866647
H  -5.518772  -2.263421   0.537617
H  -5.679132  -0.519281   0.347757
H  -5.502842  -1.185204   1.873358
H  -3.501201  -1.234524  -0.157202

