%chk=/home/boittier/MDCM/nms_sampling/methanol_geom.xyz.dir/methanol_921.chk
%nproc=8
%mem=16000MB
#p B2PLYPD3/Def2QZVP 

methanol

0 1
C  -5.179822  -1.261325   0.918007
O  -3.767801  -1.119723   0.863141
H  -5.566083  -2.205991   0.549879
H  -5.675850  -0.504818   0.341707
H  -5.413319  -1.131329   1.950160
H  -3.474993  -1.195222  -0.118914

