%chk=/home/boittier/MDCM/nms_sampling/methanol_geom.xyz.dir/methanol_2969.chk
%nproc=8
%mem=16000MB
#p B2PLYPD3/Def2QZVP 

methanol

0 1
C  -5.191385  -1.242643   0.929124
O  -3.769282  -1.128067   0.852572
H  -5.548928  -2.387724   0.541218
H  -5.683200  -0.483867   0.329707
H  -5.343794  -1.130476   1.883321
H  -3.403662  -1.114551   0.016585
