%chk=/home/boittier/MDCM/nms_sampling/methanol_geom.xyz.dir/methanol_1061.chk
%nproc=8
%mem=16000MB
#p B2PLYPD3/Def2QZVP 

methanol

0 1
C  -5.175964  -1.254190   0.917475
O  -3.771883  -1.121430   0.862916
H  -5.528732  -2.226598   0.563232
H  -5.635315  -0.499954   0.346911
H  -5.428357  -1.164521   1.939952
H  -3.517801  -1.201034  -0.115930

