%chk=/home/boittier/MDCM/nms_sampling/methanol_geom.xyz.dir/methanol_3191.chk
%nproc=8
%mem=16000MB
#p B2PLYPD3/Def2QZVP 

methanol

0 1
C  -5.183198  -1.273654   0.927593
O  -3.752242  -1.113935   0.892350
H  -5.623547  -2.102279   0.660520
H  -5.668293  -0.490949   0.355863
H  -5.520005  -1.142873   1.697575
H  -3.519420  -1.258224  -0.574610

