%chk=/home/boittier/MDCM/nms_sampling/methanol_geom.xyz.dir/methanol_2640.chk
%nproc=8
%mem=16000MB
#p B2PLYPD3/Def2QZVP 

methanol

0 1
C  -5.191855  -1.265345   0.906385
O  -3.751434  -1.129647   0.887959
H  -5.473465  -2.108761   0.584140
H  -5.812180  -0.440799   0.402573
H  -5.552033  -1.168261   1.810880
H  -3.396865  -1.130967  -0.339800

