%chk=/home/boittier/MDCM/nms_sampling/methanol_geom.xyz.dir/methanol_1202.chk
%nproc=8
%mem=16000MB
#p B2PLYPD3/Def2QZVP 

methanol

0 1
C  -5.178340  -1.248165   0.909411
O  -3.766843  -1.125931   0.846771
H  -5.464947  -2.251480   0.525350
H  -5.702013  -0.416649   0.318541
H  -5.532406  -1.211995   2.063433
H  -3.458500  -1.216750   0.183487

