%chk=/home/boittier/MDCM/nms_sampling/methanol_geom.xyz.dir/methanol_1638.chk
%nproc=8
%mem=16000MB
#p B2PLYPD3/Def2QZVP 

methanol

0 1
C  -5.184202  -1.256390   0.921370
O  -3.764036  -1.122114   0.865349
H  -5.513126  -2.167944   0.584941
H  -5.565762  -0.527776   0.295162
H  -5.492306  -1.147542   1.947520
H  -3.564933  -1.216394  -0.182057

