%chk=/home/boittier/MDCM/nms_sampling/methanol_geom.xyz.dir/methanol_198.chk
%nproc=8
%mem=16000MB
#p B2PLYPD3/Def2QZVP 

methanol

0 1
C  -5.177534  -1.262590   0.916063
O  -3.765954  -1.121016   0.855867
H  -5.552203  -2.205025   0.547190
H  -5.680156  -0.439481   0.335591
H  -5.469737  -1.158771   1.987652
H  -3.478948  -1.203341  -0.005279
