%chk=/home/boittier/MDCM/nms_sampling/methanol_geom.xyz.dir/methanol_655.chk
%nproc=8
%mem=16000MB
#p B2PLYPD3/Def2QZVP 

methanol

0 1
C  -5.184161  -1.249488   0.910150
O  -3.767225  -1.124416   0.860357
H  -5.468912  -2.224633   0.559640
H  -5.657687  -0.496945   0.331673
H  -5.477640  -1.170795   1.997720
H  -3.484039  -1.209151  -0.028889
