%chk=/home/boittier/MDCM/nms_sampling/methanol_geom.xyz.dir/methanol_2056.chk
%nproc=8
%mem=16000MB
#p B2PLYPD3/Def2QZVP 

methanol

0 1
C  -5.174468  -1.245817   0.919692
O  -3.777498  -1.124937   0.846783
H  -5.494467  -2.326668   0.488882
H  -5.634630  -0.450723   0.373752
H  -5.449458  -1.145718   1.991057
H  -3.464111  -1.208380   0.119446
