%chk=/home/boittier/MDCM/nms_sampling/methanol_geom.xyz.dir/methanol_1539.chk
%nproc=8
%mem=16000MB
#p B2PLYPD3/Def2QZVP 

methanol

0 1
C  -5.162415  -1.256715   0.913273
O  -3.777734  -1.117073   0.853972
H  -5.474067  -2.317833   0.537886
H  -5.709912  -0.437866   0.362268
H  -5.443494  -1.128075   1.957664
H  -3.551484  -1.245948   0.074815
