%chk=/home/boittier/MDCM/nms_sampling/methanol_geom.xyz.dir/methanol_1471.chk
%nproc=8
%mem=16000MB
#p B2PLYPD3/Def2QZVP 

methanol

0 1
C  -5.170443  -1.254881   0.923395
O  -3.773749  -1.120079   0.840735
H  -5.524358  -2.291512   0.457391
H  -5.642514  -0.444710   0.337379
H  -5.448275  -1.147412   2.043944
H  -3.531274  -1.220969   0.186061

