%chk=/home/boittier/MDCM/nms_sampling/methanol_geom.xyz.dir/methanol_2252.chk
%nproc=8
%mem=16000MB
#p B2PLYPD3/Def2QZVP 

methanol

0 1
C  -5.173494  -1.261224   0.904711
O  -3.771371  -1.122270   0.877934
H  -5.477835  -2.111909   0.583921
H  -5.644430  -0.525099   0.381561
H  -5.468948  -1.166527   1.943514
H  -3.549190  -1.198174  -0.272562
