%chk=/home/boittier/MDCM/nms_sampling/methanol_geom.xyz.dir/methanol_935.chk
%nproc=8
%mem=16000MB
#p B2PLYPD3/Def2QZVP 

methanol

0 1
C  -5.172568  -1.254982   0.910555
O  -3.773175  -1.123944   0.851413
H  -5.471464  -2.243087   0.548326
H  -5.677467  -0.453307   0.309179
H  -5.467064  -1.156622   2.041141
H  -3.510250  -1.193404   0.102617

