%chk=/home/boittier/MDCM/nms_sampling/methanol_geom.xyz.dir/methanol_873.chk
%nproc=8
%mem=16000MB
#p B2PLYPD3/Def2QZVP 

methanol

0 1
C  -5.179265  -1.249450   0.921492
O  -3.763499  -1.122592   0.852929
H  -5.532297  -2.281014   0.515278
H  -5.696431  -0.457575   0.335093
H  -5.497138  -1.178701   1.959678
H  -3.479365  -1.214452   0.040342

