%chk=/home/boittier/MDCM/nms_sampling/methanol_geom.xyz.dir/methanol_3363.chk
%nproc=8
%mem=16000MB
#p B2PLYPD3/Def2QZVP 

methanol

0 1
C  -5.154684  -1.240251   0.905400
O  -3.782144  -1.126709   0.843355
H  -5.448067  -2.336982   0.446808
H  -5.826684  -0.395618   0.388796
H  -5.509501  -1.228608   2.058319
H  -3.410415  -1.211164   0.302014

