%chk=/home/boittier/MDCM/nms_sampling/methanol_geom.xyz.dir/methanol_2331.chk
%nproc=8
%mem=16000MB
#p B2PLYPD3/Def2QZVP 

methanol

0 1
C  -5.170337  -1.254254   0.909404
O  -3.765751  -1.118221   0.881999
H  -5.522985  -2.186655   0.568658
H  -5.710312  -0.567749   0.408110
H  -5.499848  -1.147317   1.870412
H  -3.542278  -1.242076  -0.329769

