%chk=/home/boittier/MDCM/nms_sampling/methanol_geom.xyz.dir/methanol_256.chk
%nproc=8
%mem=16000MB
#p B2PLYPD3/Def2QZVP 

methanol

0 1
C  -5.188440  -1.258925   0.907889
O  -3.762024  -1.119048   0.858383
H  -5.497411  -2.238240   0.544489
H  -5.718948  -0.460249   0.359768
H  -5.417205  -1.169990   1.998315
H  -3.487492  -1.206979   0.017950
