%chk=/home/boittier/MDCM/nms_sampling/methanol_geom.xyz.dir/methanol_2391.chk
%nproc=8
%mem=16000MB
#p B2PLYPD3/Def2QZVP 

methanol

0 1
C  -5.173548  -1.241181   0.910784
O  -3.778527  -1.127589   0.847278
H  -5.407186  -2.330705   0.532025
H  -5.699205  -0.462914   0.300090
H  -5.451354  -1.164141   2.037365
H  -3.478137  -1.186720   0.197782
