%chk=/home/boittier/MDCM/nms_sampling/methanol_geom.xyz.dir/methanol_18.chk
%nproc=8
%mem=16000MB
#p B2PLYPD3/Def2QZVP 

methanol

0 1
C  -5.175791  -1.263117   0.919002
O  -3.767236  -1.121366   0.848802
H  -5.530359  -2.256155   0.551334
H  -5.718619  -0.384085   0.301948
H  -5.444602  -1.172175   1.980810
H  -3.486089  -1.182631   0.113840
