%chk=/home/boittier/MDCM/nms_sampling/methanol_geom.xyz.dir/methanol_1472.chk
%nproc=8
%mem=16000MB
#p B2PLYPD3/Def2QZVP 

methanol

0 1
C  -5.184977  -1.257722   0.919833
O  -3.770494  -1.121466   0.840541
H  -5.562853  -2.264292   0.494760
H  -5.663162  -0.430373   0.319206
H  -5.378348  -1.167980   2.067272
H  -3.422839  -1.187068   0.188367

