%chk=/home/boittier/MDCM/nms_sampling/methanol_geom.xyz.dir/methanol_3539.chk
%nproc=8
%mem=16000MB
#p B2PLYPD3/Def2QZVP 

methanol

0 1
C  -5.165881  -1.253434   0.894500
O  -3.763632  -1.111454   0.894145
H  -5.549365  -2.143337   0.601879
H  -5.664610  -0.674996   0.482897
H  -5.509322  -1.137237   1.907782
H  -3.643446  -1.300686  -0.499844
