%chk=/home/boittier/MDCM/nms_sampling/methanol_geom.xyz.dir/methanol_2675.chk
%nproc=8
%mem=16000MB
#p B2PLYPD3/Def2QZVP 

methanol

0 1
C  -5.183292  -1.250720   0.921182
O  -3.768507  -1.123425   0.889818
H  -5.481705  -2.152814   0.591619
H  -5.531377  -0.548844   0.435305
H  -5.536877  -1.142775   1.751907
H  -3.528517  -1.258509  -0.523758
