%chk=/home/boittier/MDCM/nms_sampling/methanol_geom.xyz.dir/methanol_2092.chk
%nproc=8
%mem=16000MB
#p B2PLYPD3/Def2QZVP 

methanol

0 1
C  -5.171231  -1.241881   0.907371
O  -3.773161  -1.125135   0.855915
H  -5.525831  -2.286960   0.542191
H  -5.691834  -0.516177   0.371914
H  -5.478918  -1.168030   2.023567
H  -3.452814  -1.205052   0.029032

