%chk=/home/boittier/MDCM/nms_sampling/methanol_geom.xyz.dir/methanol_264.chk
%nproc=8
%mem=16000MB
#p B2PLYPD3/Def2QZVP 

methanol

0 1
C  -5.184369  -1.253019   0.913239
O  -3.764845  -1.120214   0.867398
H  -5.498681  -2.230128   0.554470
H  -5.690570  -0.522261   0.354274
H  -5.440886  -1.154701   1.933436
H  -3.496726  -1.217420  -0.132129

