%chk=/home/boittier/MDCM/nms_sampling/methanol_geom.xyz.dir/methanol_972.chk
%nproc=8
%mem=16000MB
#p B2PLYPD3/Def2QZVP 

methanol

0 1
C  -5.184213  -1.255603   0.919691
O  -3.769068  -1.124452   0.848038
H  -5.504566  -2.285167   0.551456
H  -5.678776  -0.403849   0.305697
H  -5.428448  -1.163188   1.978691
H  -3.444568  -1.178256   0.116919
