%chk=/home/boittier/MDCM/nms_sampling/methanol_geom.xyz.dir/methanol_675.chk
%nproc=8
%mem=16000MB
#p B2PLYPD3/Def2QZVP 

methanol

0 1
C  -5.173380  -1.253801   0.920163
O  -3.771044  -1.126470   0.865450
H  -5.522727  -2.208829   0.559373
H  -5.643247  -0.462767   0.358220
H  -5.502376  -1.167459   1.895786
H  -3.479849  -1.183816  -0.150653

