%chk=/home/boittier/MDCM/nms_sampling/methanol_geom.xyz.dir/methanol_2004.chk
%nproc=8
%mem=16000MB
#p B2PLYPD3/Def2QZVP 

methanol

0 1
C  -5.175512  -1.267164   0.906017
O  -3.765337  -1.116755   0.858262
H  -5.523879  -2.239667   0.525404
H  -5.802117  -0.430006   0.378726
H  -5.429176  -1.136601   1.992554
H  -3.462727  -1.212025   0.048573
