%chk=/home/boittier/MDCM/nms_sampling/methanol_geom.xyz.dir/methanol_1088.chk
%nproc=8
%mem=16000MB
#p B2PLYPD3/Def2QZVP 

methanol

0 1
C  -5.175560  -1.257986   0.908825
O  -3.769303  -1.123670   0.854615
H  -5.501729  -2.221719   0.548222
H  -5.723401  -0.446617   0.323496
H  -5.478535  -1.153933   2.029284
H  -3.448314  -1.195659   0.068474

