%chk=/home/boittier/MDCM/nms_sampling/methanol_geom.xyz.dir/methanol_2329.chk
%nproc=8
%mem=16000MB
#p B2PLYPD3/Def2QZVP 

methanol

0 1
C  -5.181047  -1.247880   0.917981
O  -3.762127  -1.119986   0.840100
H  -5.501884  -2.372725   0.514396
H  -5.677249  -0.435365   0.331728
H  -5.466816  -1.161230   2.024858
H  -3.564497  -1.217902   0.231804
