%chk=/home/boittier/MDCM/nms_sampling/methanol_geom.xyz.dir/methanol_1055.chk
%nproc=8
%mem=16000MB
#p B2PLYPD3/Def2QZVP 

methanol

0 1
C  -5.182833  -1.252804   0.916783
O  -3.764277  -1.120847   0.850763
H  -5.507807  -2.267415   0.514145
H  -5.651959  -0.480899   0.334611
H  -5.453831  -1.160438   2.018790
H  -3.538609  -1.208944   0.071452

