%chk=/home/boittier/MDCM/nms_sampling/methanol_geom.xyz.dir/methanol_597.chk
%nproc=8
%mem=16000MB
#p B2PLYPD3/Def2QZVP 

methanol

0 1
C  -5.183969  -1.251005   0.918923
O  -3.767553  -1.124724   0.855524
H  -5.478506  -2.259137   0.551784
H  -5.625053  -0.437085   0.338260
H  -5.492816  -1.169318   1.947606
H  -3.487435  -1.214482   0.001915
