%chk=/home/boittier/MDCM/nms_sampling/methanol_geom.xyz.dir/methanol_2160.chk
%nproc=8
%mem=16000MB
#p B2PLYPD3/Def2QZVP 

methanol

0 1
C  -5.177666  -1.263571   0.908486
O  -3.772861  -1.121145   0.847415
H  -5.419743  -2.233706   0.533368
H  -5.680658  -0.412134   0.299683
H  -5.428436  -1.145408   2.070387
H  -3.541188  -1.198824   0.186844

