%chk=/home/boittier/MDCM/nms_sampling/methanol_geom.xyz.dir/methanol_500.chk
%nproc=8
%mem=16000MB
#p B2PLYPD3/Def2QZVP 

methanol

0 1
C  -5.181977  -1.256980   0.907909
O  -3.762862  -1.119246   0.852597
H  -5.500486  -2.261434   0.527152
H  -5.730662  -0.443686   0.357569
H  -5.451596  -1.174711   2.027550
H  -3.500084  -1.216191   0.102439

