%chk=/home/boittier/MDCM/nms_sampling/methanol_geom.xyz.dir/methanol_551.chk
%nproc=8
%mem=16000MB
#p B2PLYPD3/Def2QZVP 

methanol

0 1
C  -5.175130  -1.259447   0.911781
O  -3.772364  -1.122060   0.853259
H  -5.436702  -2.247557   0.541966
H  -5.693043  -0.425845   0.315382
H  -5.450990  -1.149756   2.004194
H  -3.527964  -1.200682   0.096562
