%chk=/home/boittier/MDCM/nms_sampling/methanol_geom.xyz.dir/methanol_3234.chk
%nproc=8
%mem=16000MB
#p B2PLYPD3/Def2QZVP 

methanol

0 1
C  -5.169364  -1.274336   0.909969
O  -3.775252  -1.119226   0.840634
H  -5.577916  -2.172418   0.581882
H  -5.656723  -0.320333   0.308261
H  -5.417802  -1.209371   2.097461
H  -3.467216  -1.198659   0.198480
