%chk=/home/boittier/MDCM/nms_sampling/methanol_geom.xyz.dir/methanol_3522.chk
%nproc=8
%mem=16000MB
#p B2PLYPD3/Def2QZVP 

methanol

0 1
C  -5.192211  -1.250427   0.891735
O  -3.745146  -1.124919   0.877912
H  -5.580547  -2.195473   0.584695
H  -5.804611  -0.592378   0.431754
H  -5.546629  -1.128890   1.993237
H  -3.415181  -1.171859  -0.219701
