%chk=/home/boittier/MDCM/nms_sampling/methanol_geom.xyz.dir/methanol_410.chk
%nproc=8
%mem=16000MB
#p B2PLYPD3/Def2QZVP 

methanol

0 1
C  -5.191301  -1.253100   0.919063
O  -3.760752  -1.125301   0.851965
H  -5.502838  -2.261301   0.540893
H  -5.674665  -0.439434   0.311221
H  -5.467940  -1.168653   1.979926
H  -3.460132  -1.178395   0.062237
