%chk=/home/boittier/MDCM/nms_sampling/methanol_geom.xyz.dir/methanol_370.chk
%nproc=8
%mem=16000MB
#p B2PLYPD3/Def2QZVP 

methanol

0 1
C  -5.181318  -1.252508   0.917558
O  -3.767376  -1.120269   0.865148
H  -5.508544  -2.225507   0.533363
H  -5.647992  -0.513957   0.365566
H  -5.446762  -1.166283   1.930024
H  -3.518014  -1.223503  -0.132850

