%chk=/home/boittier/MDCM/nms_sampling/methanol_geom.xyz.dir/methanol_2123.chk
%nproc=8
%mem=16000MB
#p B2PLYPD3/Def2QZVP 

methanol

0 1
C  -5.160107  -1.242710   0.906687
O  -3.776813  -1.127557   0.884398
H  -5.482721  -2.206238   0.558837
H  -5.725863  -0.542934   0.447761
H  -5.513234  -1.199713   1.838769
H  -3.492962  -1.182796  -0.332771
