%chk=/home/boittier/MDCM/nms_sampling/methanol_geom.xyz.dir/methanol_2714.chk
%nproc=8
%mem=16000MB
#p B2PLYPD3/Def2QZVP 

methanol

0 1
C  -5.199989  -1.276652   0.908301
O  -3.756350  -1.113086   0.839251
H  -5.368484  -2.312439   0.561219
H  -5.800170  -0.304694   0.244353
H  -5.384560  -1.113784   2.047633
H  -3.521167  -1.234397   0.376637

