%chk=/home/boittier/MDCM/nms_sampling/methanol_geom.xyz.dir/methanol_1842.chk
%nproc=8
%mem=16000MB
#p B2PLYPD3/Def2QZVP 

methanol

0 1
C  -5.197714  -1.253120   0.922869
O  -3.760298  -1.121599   0.876176
H  -5.566232  -2.159029   0.541392
H  -5.617228  -0.574770   0.370861
H  -5.420639  -1.160632   1.876579
H  -3.439331  -1.206684  -0.336928

