%chk=/home/boittier/MDCM/nms_sampling/methanol_geom.xyz.dir/methanol_598.chk
%nproc=8
%mem=16000MB
#p B2PLYPD3/Def2QZVP 

methanol

0 1
C  -5.178653  -1.254284   0.910525
O  -3.761926  -1.120195   0.852430
H  -5.493183  -2.293033   0.535826
H  -5.742016  -0.436826   0.347610
H  -5.470745  -1.177435   1.997141
H  -3.530330  -1.205889   0.107627
