%chk=/home/boittier/MDCM/nms_sampling/methanol_geom.xyz.dir/methanol_2650.chk
%nproc=8
%mem=16000MB
#p B2PLYPD3/Def2QZVP 

methanol

0 1
C  -5.191476  -1.226854   0.931993
O  -3.767734  -1.125871   0.888120
H  -5.455476  -2.240395   0.493442
H  -5.569014  -0.647332   0.424159
H  -5.469753  -1.207598   1.729971
H  -3.512093  -1.236353  -0.494930

