%chk=/home/boittier/MDCM/nms_sampling/methanol_geom.xyz.dir/methanol_795.chk
%nproc=8
%mem=16000MB
#p B2PLYPD3/Def2QZVP 

methanol

0 1
C  -5.181250  -1.258852   0.911070
O  -3.768282  -1.122693   0.872020
H  -5.494037  -2.178579   0.582978
H  -5.706333  -0.497927   0.341948
H  -5.428097  -1.163601   1.918188
H  -3.473864  -1.180965  -0.183103
