%chk=/home/boittier/MDCM/nms_sampling/methanol_geom.xyz.dir/methanol_1993.chk
%nproc=8
%mem=16000MB
#p B2PLYPD3/Def2QZVP 

methanol

0 1
C  -5.178576  -1.249793   0.922847
O  -3.769694  -1.126157   0.873820
H  -5.561246  -2.219869   0.554417
H  -5.712788  -0.517598   0.362991
H  -5.433663  -1.173868   1.836394
H  -3.406322  -1.159318  -0.259436

