%chk=/home/boittier/MDCM/nms_sampling/methanol_geom.xyz.dir/methanol_2287.chk
%nproc=8
%mem=16000MB
#p B2PLYPD3/Def2QZVP 

methanol

0 1
C  -5.178363  -1.248846   0.925531
O  -3.777249  -1.124978   0.852805
H  -5.443884  -2.251286   0.525335
H  -5.607395  -0.430011   0.301278
H  -5.459150  -1.195018   1.944631
H  -3.484611  -1.222177   0.033301

