%chk=/home/boittier/MDCM/nms_sampling/methanol_geom.xyz.dir/methanol_323.chk
%nproc=8
%mem=16000MB
#p B2PLYPD3/Def2QZVP 

methanol

0 1
C  -5.186591  -1.261056   0.910021
O  -3.761326  -1.121220   0.857622
H  -5.474842  -2.237273   0.558957
H  -5.718840  -0.420266   0.341011
H  -5.451881  -1.169991   1.975131
H  -3.503763  -1.192592   0.034098

