%chk=/home/boittier/MDCM/nms_sampling/methanol_geom.xyz.dir/methanol_2997.chk
%nproc=8
%mem=16000MB
#p B2PLYPD3/Def2QZVP 

methanol

0 1
C  -5.150219  -1.257672   0.916202
O  -3.775242  -1.114329   0.853185
H  -5.492142  -2.289401   0.518749
H  -5.858314  -0.412203   0.292211
H  -5.468888  -1.208166   1.960370
H  -3.536577  -1.256379   0.136702

