%chk=/home/boittier/MDCM/nms_sampling/methanol_geom.xyz.dir/methanol_2895.chk
%nproc=8
%mem=16000MB
#p B2PLYPD3/Def2QZVP 

methanol

0 1
C  -5.160026  -1.263744   0.930931
O  -3.766874  -1.111344   0.821368
H  -5.539001  -2.382444   0.402370
H  -5.750686  -0.322749   0.302462
H  -5.497848  -1.152448   2.068194
H  -3.589023  -1.284589   0.481849

