%chk=/home/boittier/MDCM/nms_sampling/methanol_geom.xyz.dir/methanol_3225.chk
%nproc=8
%mem=16000MB
#p B2PLYPD3/Def2QZVP 

methanol

0 1
C  -5.203683  -1.261264   0.911238
O  -3.763185  -1.126456   0.842172
H  -5.345445  -2.301913   0.552284
H  -5.763818  -0.335105   0.238961
H  -5.440516  -1.113476   2.031495
H  -3.372122  -1.184857   0.323760
