%chk=/home/boittier/MDCM/nms_sampling/methanol_geom.xyz.dir/methanol_2565.chk
%nproc=8
%mem=16000MB
#p B2PLYPD3/Def2QZVP 

methanol

0 1
C  -5.169477  -1.230282   0.931847
O  -3.789347  -1.132724   0.824553
H  -5.395245  -2.442688   0.424009
H  -5.608533  -0.376460   0.300703
H  -5.435746  -1.198731   2.032479
H  -3.472695  -1.168254   0.436324
