%chk=/home/boittier/MDCM/nms_sampling/methanol_geom.xyz.dir/methanol_1721.chk
%nproc=8
%mem=16000MB
#p B2PLYPD3/Def2QZVP 

methanol

0 1
C  -5.192523  -1.265457   0.906743
O  -3.755285  -1.119820   0.855325
H  -5.486133  -2.202500   0.553622
H  -5.716233  -0.456368   0.312213
H  -5.454642  -1.141808   2.048662
H  -3.519343  -1.191461   0.066519
