%chk=/home/boittier/MDCM/nms_sampling/methanol_geom.xyz.dir/methanol_1755.chk
%nproc=8
%mem=16000MB
#p B2PLYPD3/Def2QZVP 

methanol

0 1
C  -5.174258  -1.259554   0.916254
O  -3.775659  -1.122072   0.851499
H  -5.458278  -2.276204   0.549048
H  -5.650771  -0.394706   0.341096
H  -5.438404  -1.145446   1.963655
H  -3.519686  -1.204836   0.083985
