%chk=/home/boittier/MDCM/nms_sampling/methanol_geom.xyz.dir/methanol_364.chk
%nproc=8
%mem=16000MB
#p B2PLYPD3/Def2QZVP 

methanol

0 1
C  -5.174635  -1.252832   0.915906
O  -3.773719  -1.125582   0.866797
H  -5.521432  -2.195924   0.581107
H  -5.613449  -0.509318   0.346861
H  -5.467834  -1.153632   1.934086
H  -3.491267  -1.186396  -0.173238
