%chk=/home/boittier/MDCM/nms_sampling/methanol_geom.xyz.dir/methanol_3062.chk
%nproc=8
%mem=16000MB
#p B2PLYPD3/Def2QZVP 

methanol

0 1
C  -5.160125  -1.256847   0.925671
O  -3.773586  -1.118812   0.830100
H  -5.567032  -2.296107   0.495672
H  -5.664634  -0.293445   0.320204
H  -5.511209  -1.262711   2.039633
H  -3.516423  -1.256115   0.321094

