%chk=/home/boittier/MDCM/nms_sampling/methanol_geom.xyz.dir/methanol_1397.chk
%nproc=8
%mem=16000MB
#p B2PLYPD3/Def2QZVP 

methanol

0 1
C  -5.176547  -1.241148   0.919314
O  -3.761995  -1.124850   0.867892
H  -5.581519  -2.215518   0.544726
H  -5.660345  -0.565879   0.356304
H  -5.536015  -1.200538   1.929862
H  -3.483879  -1.211253  -0.201615
