%chk=/home/boittier/MDCM/nms_sampling/methanol_geom.xyz.dir/methanol_658.chk
%nproc=8
%mem=16000MB
#p B2PLYPD3/Def2QZVP 

methanol

0 1
C  -5.176130  -1.250002   0.909394
O  -3.769805  -1.123706   0.860225
H  -5.502142  -2.226745   0.546517
H  -5.698303  -0.498299   0.344710
H  -5.472133  -1.177334   2.002091
H  -3.468284  -1.204548  -0.022224
