%chk=/home/boittier/MDCM/nms_sampling/methanol_geom.xyz.dir/methanol_2926.chk
%nproc=8
%mem=16000MB
#p B2PLYPD3/Def2QZVP 

methanol

0 1
C  -5.219025  -1.263046   0.898967
O  -3.753677  -1.124531   0.831660
H  -5.397652  -2.262288   0.497767
H  -5.723928  -0.389615   0.277772
H  -5.429905  -1.094642   2.225376
H  -3.345742  -1.196828   0.455065
