%chk=/home/boittier/MDCM/nms_sampling/methanol_geom.xyz.dir/methanol_3321.chk
%nproc=8
%mem=16000MB
#p B2PLYPD3/Def2QZVP 

methanol

0 1
C  -5.196382  -1.275726   0.932394
O  -3.749155  -1.114438   0.868619
H  -5.606519  -2.165299   0.640487
H  -5.665839  -0.385746   0.283921
H  -5.447496  -1.185268   1.793235
H  -3.503895  -1.225082  -0.247120
