%chk=/home/boittier/MDCM/nms_sampling/methanol_geom.xyz.dir/methanol_302.chk
%nproc=8
%mem=16000MB
#p B2PLYPD3/Def2QZVP 

methanol

0 1
C  -5.169602  -1.257521   0.922014
O  -3.770046  -1.121319   0.849180
H  -5.542953  -2.281365   0.510319
H  -5.715115  -0.430891   0.324176
H  -5.462809  -1.149210   1.975845
H  -3.491195  -1.196937   0.095086

