%chk=/home/boittier/MDCM/nms_sampling/methanol_geom.xyz.dir/methanol_2858.chk
%nproc=8
%mem=16000MB
#p B2PLYPD3/Def2QZVP 

methanol

0 1
C  -5.194188  -1.274081   0.920987
O  -3.773311  -1.128270   0.881175
H  -5.519495  -2.033595   0.572182
H  -5.587494  -0.508113   0.339683
H  -5.366581  -1.104152   1.874338
H  -3.390140  -1.113258  -0.395394
