%chk=/home/boittier/MDCM/nms_sampling/methanol_geom.xyz.dir/methanol_1470.chk
%nproc=8
%mem=16000MB
#p B2PLYPD3/Def2QZVP 

methanol

0 1
C  -5.186494  -1.264537   0.908908
O  -3.757489  -1.121727   0.877441
H  -5.496301  -2.167513   0.574415
H  -5.755759  -0.462054   0.390307
H  -5.478529  -1.161605   1.867976
H  -3.478546  -1.183575  -0.233230
