%chk=/home/boittier/MDCM/nms_sampling/methanol_geom.xyz.dir/methanol_2955.chk
%nproc=8
%mem=16000MB
#p B2PLYPD3/Def2QZVP 

methanol

0 1
C  -5.163420  -1.265240   0.913174
O  -3.779170  -1.121737   0.877403
H  -5.410680  -2.129248   0.574282
H  -5.738424  -0.431957   0.327327
H  -5.492990  -1.174612   1.858130
H  -3.488910  -1.230167  -0.211793
