%chk=/home/boittier/MDCM/nms_sampling/methanol_geom.xyz.dir/methanol_1889.chk
%nproc=8
%mem=16000MB
#p B2PLYPD3/Def2QZVP 

methanol

0 1
C  -5.175273  -1.240661   0.909818
O  -3.763705  -1.126582   0.848580
H  -5.470491  -2.346968   0.513732
H  -5.751077  -0.441696   0.361223
H  -5.525057  -1.196723   2.008316
H  -3.501978  -1.185795   0.176859
