%chk=/home/boittier/MDCM/nms_sampling/methanol_geom.xyz.dir/methanol_401.chk
%nproc=8
%mem=16000MB
#p B2PLYPD3/Def2QZVP 

methanol

0 1
C  -5.184768  -1.258861   0.910182
O  -3.759609  -1.119226   0.853312
H  -5.510400  -2.252548   0.527336
H  -5.748206  -0.448870   0.337434
H  -5.439482  -1.175742   2.019768
H  -3.502840  -1.198182   0.090976

