%chk=/home/boittier/MDCM/nms_sampling/methanol_geom.xyz.dir/methanol_1958.chk
%nproc=8
%mem=16000MB
#p B2PLYPD3/Def2QZVP 

methanol

0 1
C  -5.176858  -1.260666   0.927757
O  -3.762615  -1.118106   0.868309
H  -5.545966  -2.169219   0.556949
H  -5.662561  -0.450955   0.323898
H  -5.497801  -1.213238   1.853303
H  -3.534223  -1.241907  -0.208280

