%chk=/home/boittier/MDCM/nms_sampling/methanol_geom.xyz.dir/methanol_604.chk
%nproc=8
%mem=16000MB
#p B2PLYPD3/Def2QZVP 

methanol

0 1
C  -5.191705  -1.253113   0.917316
O  -3.761193  -1.123388   0.867217
H  -5.539361  -2.212254   0.553806
H  -5.659363  -0.536940   0.348236
H  -5.448837  -1.135730   1.932116
H  -3.450896  -1.190227  -0.169843
