%chk=/home/boittier/MDCM/nms_sampling/methanol_geom.xyz.dir/methanol_2915.chk
%nproc=8
%mem=16000MB
#p B2PLYPD3/Def2QZVP 

methanol

0 1
C  -5.157881  -1.235989   0.909467
O  -3.773936  -1.127550   0.878723
H  -5.525205  -2.282658   0.574671
H  -5.767241  -0.558269   0.416171
H  -5.502402  -1.202572   1.842681
H  -3.495792  -1.164972  -0.259788

