%chk=/home/boittier/MDCM/nms_sampling/methanol_geom.xyz.dir/methanol_1043.chk
%nproc=8
%mem=16000MB
#p B2PLYPD3/Def2QZVP 

methanol

0 1
C  -5.185795  -1.254856   0.915890
O  -3.766689  -1.124914   0.851247
H  -5.521392  -2.246183   0.564331
H  -5.647771  -0.446734   0.309507
H  -5.442645  -1.164259   2.010148
H  -3.463400  -1.175417   0.058872
