%chk=/home/boittier/MDCM/nms_sampling/methanol_geom.xyz.dir/methanol_1782.chk
%nproc=8
%mem=16000MB
#p B2PLYPD3/Def2QZVP 

methanol

0 1
C  -5.158292  -1.252914   0.901888
O  -3.775585  -1.122515   0.875965
H  -5.526159  -2.189701   0.577194
H  -5.710749  -0.569968   0.401195
H  -5.483218  -1.139677   1.955491
H  -3.537162  -1.192943  -0.231160

