%chk=/home/boittier/MDCM/nms_sampling/methanol_geom.xyz.dir/methanol_3462.chk
%nproc=8
%mem=16000MB
#p B2PLYPD3/Def2QZVP 

methanol

0 1
C  -5.179506  -1.280183   0.928957
O  -3.763020  -1.113664   0.873196
H  -5.590486  -2.105098   0.595437
H  -5.736922  -0.388651   0.295855
H  -5.403239  -1.207596   1.807463
H  -3.466776  -1.219615  -0.265755

