%chk=/home/boittier/MDCM/nms_sampling/methanol_geom.xyz.dir/methanol_1073.chk
%nproc=8
%mem=16000MB
#p B2PLYPD3/Def2QZVP 

methanol

0 1
C  -5.175003  -1.256021   0.915073
O  -3.765909  -1.121376   0.868739
H  -5.527516  -2.166357   0.556662
H  -5.659291  -0.505655   0.352971
H  -5.484884  -1.196169   1.937092
H  -3.539786  -1.207957  -0.181230
