%chk=/home/boittier/MDCM/nms_sampling/methanol_geom.xyz.dir/methanol_1881.chk
%nproc=8
%mem=16000MB
#p B2PLYPD3/Def2QZVP 

methanol

0 1
C  -5.187340  -1.263317   0.922245
O  -3.762313  -1.117210   0.837616
H  -5.518315  -2.255894   0.529344
H  -5.627083  -0.406641   0.256725
H  -5.452209  -1.150364   2.074630
H  -3.530254  -1.242410   0.227794

