%chk=/home/boittier/MDCM/nms_sampling/methanol_geom.xyz.dir/methanol_515.chk
%nproc=8
%mem=16000MB
#p B2PLYPD3/Def2QZVP 

methanol

0 1
C  -5.179669  -1.259891   0.911053
O  -3.769577  -1.119605   0.867922
H  -5.488763  -2.211138   0.543058
H  -5.708129  -0.497180   0.370861
H  -5.416838  -1.138766   1.936178
H  -3.490425  -1.207645  -0.122759
