%chk=/home/boittier/MDCM/nms_sampling/methanol_geom.xyz.dir/methanol_1715.chk
%nproc=8
%mem=16000MB
#p B2PLYPD3/Def2QZVP 

methanol

0 1
C  -5.172867  -1.254882   0.918897
O  -3.765696  -1.120834   0.866000
H  -5.533629  -2.177745   0.564202
H  -5.652533  -0.507634   0.318360
H  -5.528920  -1.173711   1.938974
H  -3.526554  -1.239852  -0.156729

