%chk=/home/boittier/MDCM/nms_sampling/methanol_geom.xyz.dir/methanol_561.chk
%nproc=8
%mem=16000MB
#p B2PLYPD3/Def2QZVP 

methanol

0 1
C  -5.171718  -1.247202   0.907732
O  -3.771951  -1.125424   0.870379
H  -5.509027  -2.212293   0.547930
H  -5.692952  -0.525904   0.401875
H  -5.476048  -1.186866   1.942345
H  -3.479653  -1.187048  -0.165649

