%chk=/home/boittier/MDCM/nms_sampling/methanol_geom.xyz.dir/methanol_1588.chk
%nproc=8
%mem=16000MB
#p B2PLYPD3/Def2QZVP 

methanol

0 1
C  -5.192145  -1.263712   0.922462
O  -3.765061  -1.126030   0.845141
H  -5.531178  -2.213789   0.522126
H  -5.625000  -0.402241   0.298483
H  -5.443630  -1.136525   2.027507
H  -3.423182  -1.162403   0.115853

