%chk=/home/boittier/MDCM/nms_sampling/methanol_geom.xyz.dir/methanol_842.chk
%nproc=8
%mem=16000MB
#p B2PLYPD3/Def2QZVP 

methanol

0 1
C  -5.174112  -1.259127   0.912556
O  -3.766990  -1.120320   0.868637
H  -5.538289  -2.185705   0.574670
H  -5.683230  -0.497489   0.358054
H  -5.474495  -1.160609   1.934015
H  -3.510612  -1.212591  -0.168607

