%chk=/home/boittier/MDCM/nms_sampling/methanol_geom.xyz.dir/methanol_3346.chk
%nproc=8
%mem=16000MB
#p B2PLYPD3/Def2QZVP 

methanol

0 1
C  -5.168106  -1.246759   0.891897
O  -3.772213  -1.125673   0.890816
H  -5.567194  -2.098505   0.600483
H  -5.721644  -0.584129   0.483989
H  -5.505938  -1.228256   1.924576
H  -3.398313  -1.205039  -0.430619
