%chk=/home/boittier/MDCM/nms_sampling/methanol_geom.xyz.dir/methanol_545.chk
%nproc=8
%mem=16000MB
#p B2PLYPD3/Def2QZVP 

methanol

0 1
C  -5.187883  -1.255331   0.914192
O  -3.761153  -1.123910   0.854552
H  -5.493684  -2.253290   0.537305
H  -5.719788  -0.414007   0.341876
H  -5.481716  -1.181383   1.970956
H  -3.442631  -1.196142   0.060340

