%chk=/home/boittier/MDCM/nms_sampling/methanol_geom.xyz.dir/methanol_3135.chk
%nproc=8
%mem=16000MB
#p B2PLYPD3/Def2QZVP 

methanol

0 1
C  -5.188884  -1.240184   0.927287
O  -3.767120  -1.126675   0.890035
H  -5.478387  -2.233729   0.518344
H  -5.617436  -0.639373   0.425619
H  -5.430333  -1.126670   1.733818
H  -3.517106  -1.167433  -0.500498

