%chk=/home/boittier/MDCM/nms_sampling/methanol_geom.xyz.dir/methanol_2656.chk
%nproc=8
%mem=16000MB
#p B2PLYPD3/Def2QZVP 

methanol

0 1
C  -5.172241  -1.259779   0.929092
O  -3.758586  -1.117906   0.835459
H  -5.488560  -2.309769   0.542317
H  -5.709706  -0.324085   0.218252
H  -5.533325  -1.224691   1.993454
H  -3.624485  -1.232946   0.293351

