%chk=/home/boittier/MDCM/nms_sampling/methanol_geom.xyz.dir/methanol_1026.chk
%nproc=8
%mem=16000MB
#p B2PLYPD3/Def2QZVP 

methanol

0 1
C  -5.182885  -1.261412   0.907394
O  -3.760837  -1.119005   0.857632
H  -5.518456  -2.216449   0.570328
H  -5.726775  -0.435005   0.340340
H  -5.462310  -1.184416   2.004470
H  -3.493196  -1.215456   0.023679

