%chk=/home/boittier/MDCM/nms_sampling/methanol_geom.xyz.dir/methanol_1904.chk
%nproc=8
%mem=16000MB
#p B2PLYPD3/Def2QZVP 

methanol

0 1
C  -5.184844  -1.255226   0.905155
O  -3.761393  -1.120116   0.850551
H  -5.433775  -2.284930   0.499645
H  -5.715575  -0.465250   0.361033
H  -5.462393  -1.141735   2.059070
H  -3.562932  -1.209443   0.159333

