%chk=/home/boittier/MDCM/nms_sampling/methanol_geom.xyz.dir/methanol_1474.chk
%nproc=8
%mem=16000MB
#p B2PLYPD3/Def2QZVP 

methanol

0 1
C  -5.183318  -1.265486   0.918458
O  -3.770044  -1.116649   0.868552
H  -5.585795  -2.149190   0.552679
H  -5.639170  -0.516675   0.359942
H  -5.360033  -1.157310   1.936004
H  -3.468309  -1.211949  -0.220234
