%chk=/home/boittier/MDCM/nms_sampling/methanol_geom.xyz.dir/methanol_2789.chk
%nproc=8
%mem=16000MB
#p B2PLYPD3/Def2QZVP 

methanol

0 1
C  -5.168200  -1.271266   0.936485
O  -3.764601  -1.115292   0.865576
H  -5.661021  -2.256304   0.534237
H  -5.717871  -0.462179   0.357458
H  -5.410040  -1.094905   1.794290
H  -3.526784  -1.180565  -0.214377

