%chk=/home/boittier/MDCM/nms_sampling/methanol_geom.xyz.dir/methanol_67.chk
%nproc=8
%mem=16000MB
#p B2PLYPD3/Def2QZVP 

methanol

0 1
C  -5.174850  -1.250427   0.919001
O  -3.773361  -1.125861   0.868480
H  -5.496484  -2.204368   0.548246
H  -5.658246  -0.498526   0.350682
H  -5.470203  -1.176471   1.898701
H  -3.472240  -1.189136  -0.172514
