%chk=/home/boittier/MDCM/nms_sampling/methanol_geom.xyz.dir/methanol_192.chk
%nproc=8
%mem=16000MB
#p B2PLYPD3/Def2QZVP 

methanol

0 1
C  -5.175183  -1.251432   0.920624
O  -3.769089  -1.123862   0.849116
H  -5.545979  -2.282492   0.506055
H  -5.719395  -0.443032   0.328167
H  -5.460811  -1.173710   1.988640
H  -3.436954  -1.189105   0.099400
