%chk=/home/boittier/MDCM/nms_sampling/methanol_geom.xyz.dir/methanol_3550.chk
%nproc=8
%mem=16000MB
#p B2PLYPD3/Def2QZVP 

methanol

0 1
C  -5.206814  -1.263289   0.932881
O  -3.750669  -1.121749   0.884824
H  -5.570595  -2.094710   0.653177
H  -5.577799  -0.539264   0.268240
H  -5.447930  -1.164723   1.770979
H  -3.485418  -1.189287  -0.497691

