%chk=/home/boittier/MDCM/nms_sampling/methanol_geom.xyz.dir/methanol_2207.chk
%nproc=8
%mem=16000MB
#p B2PLYPD3/Def2QZVP 

methanol

0 1
C  -5.164832  -1.259812   0.923244
O  -3.772677  -1.121087   0.845214
H  -5.525653  -2.243416   0.513216
H  -5.663121  -0.380467   0.312897
H  -5.476932  -1.209669   1.996870
H  -3.553357  -1.204088   0.132579

