%chk=/home/boittier/MDCM/nms_sampling/methanol_geom.xyz.dir/methanol_1093.chk
%nproc=8
%mem=16000MB
#p B2PLYPD3/Def2QZVP 

methanol

0 1
C  -5.180509  -1.255694   0.911835
O  -3.768297  -1.120178   0.871817
H  -5.502572  -2.172474   0.582973
H  -5.646920  -0.531833   0.346496
H  -5.447760  -1.167091   1.935677
H  -3.516559  -1.223956  -0.211857

