%chk=/home/boittier/MDCM/nms_sampling/methanol_geom.xyz.dir/methanol_1621.chk
%nproc=8
%mem=16000MB
#p B2PLYPD3/Def2QZVP 

methanol

0 1
C  -5.196306  -1.254012   0.926700
O  -3.757465  -1.124104   0.877109
H  -5.553220  -2.172986   0.544770
H  -5.645578  -0.522917   0.372274
H  -5.443961  -1.184811   1.817018
H  -3.456853  -1.174250  -0.339520
