%chk=/home/boittier/MDCM/nms_sampling/methanol_geom.xyz.dir/methanol_2079.chk
%nproc=8
%mem=16000MB
#p B2PLYPD3/Def2QZVP 

methanol

0 1
C  -5.177326  -1.241271   0.909784
O  -3.763195  -1.123830   0.881193
H  -5.499244  -2.226608   0.555479
H  -5.749999  -0.572395   0.403093
H  -5.518384  -1.187727   1.859358
H  -3.468383  -1.219184  -0.291376

