%chk=/home/boittier/MDCM/nms_sampling/methanol_geom.xyz.dir/methanol_3089.chk
%nproc=8
%mem=16000MB
#p B2PLYPD3/Def2QZVP 

methanol

0 1
C  -5.181420  -1.253518   0.892688
O  -3.755326  -1.118235   0.854460
H  -5.505563  -2.219049   0.551313
H  -5.743945  -0.431696   0.405871
H  -5.536954  -1.247625   2.093902
H  -3.518579  -1.257825   0.111945

