%chk=/home/boittier/MDCM/nms_sampling/methanol_geom.xyz.dir/methanol_1483.chk
%nproc=8
%mem=16000MB
#p B2PLYPD3/Def2QZVP 

methanol

0 1
C  -5.186024  -1.267368   0.914860
O  -3.767820  -1.120934   0.866196
H  -5.550963  -2.157620   0.591626
H  -5.614796  -0.476213   0.349081
H  -5.397333  -1.137803   1.945358
H  -3.489322  -1.178264  -0.175051

