%chk=/home/boittier/MDCM/nms_sampling/methanol_geom.xyz.dir/methanol_2052.chk
%nproc=8
%mem=16000MB
#p B2PLYPD3/Def2QZVP 

methanol

0 1
C  -5.175569  -1.247576   0.920214
O  -3.769360  -1.126051   0.878206
H  -5.560329  -2.215751   0.550831
H  -5.680421  -0.534793   0.413640
H  -5.453246  -1.184113   1.819226
H  -3.460204  -1.163055  -0.328834
