%chk=/home/boittier/MDCM/nms_sampling/methanol_geom.xyz.dir/methanol_3472.chk
%nproc=8
%mem=16000MB
#p B2PLYPD3/Def2QZVP 

methanol

0 1
C  -5.144150  -1.244190   0.929489
O  -3.785470  -1.127359   0.839584
H  -5.563740  -2.292114   0.389756
H  -5.639156  -0.474146   0.368230
H  -5.534424  -1.162055   2.041971
H  -3.526783  -1.188772   0.170396

