%chk=/home/boittier/MDCM/nms_sampling/methanol_geom.xyz.dir/methanol_1159.chk
%nproc=8
%mem=16000MB
#p B2PLYPD3/Def2QZVP 

methanol

0 1
C  -5.172512  -1.251881   0.917096
O  -3.770659  -1.126801   0.865208
H  -5.517904  -2.192987   0.559082
H  -5.644759  -0.497384   0.339413
H  -5.515304  -1.163264   1.939794
H  -3.487296  -1.186425  -0.138308

