%chk=/home/boittier/MDCM/nms_sampling/methanol_geom.xyz.dir/methanol_2472.chk
%nproc=8
%mem=16000MB
#p B2PLYPD3/Def2QZVP 

methanol

0 1
C  -5.197125  -1.244537   0.894628
O  -3.756887  -1.122171   0.840161
H  -5.420152  -2.314626   0.485649
H  -5.731677  -0.461055   0.367066
H  -5.467833  -1.191866   2.178724
H  -3.486299  -1.223672   0.339296

