%chk=/home/boittier/MDCM/nms_sampling/methanol_geom.xyz.dir/methanol_3083.chk
%nproc=8
%mem=16000MB
#p B2PLYPD3/Def2QZVP 

methanol

0 1
C  -5.176338  -1.240217   0.930822
O  -3.759609  -1.128019   0.827480
H  -5.456806  -2.428141   0.368617
H  -5.729033  -0.383528   0.338370
H  -5.582619  -1.156109   2.026173
H  -3.533525  -1.187021   0.423452

