%chk=/home/boittier/MDCM/nms_sampling/methanol_geom.xyz.dir/methanol_2130.chk
%nproc=8
%mem=16000MB
#p B2PLYPD3/Def2QZVP 

methanol

0 1
C  -5.160913  -1.253527   0.918950
O  -3.774988  -1.120895   0.871087
H  -5.609863  -2.188745   0.571209
H  -5.641347  -0.554249   0.368327
H  -5.443025  -1.176314   1.909205
H  -3.541181  -1.190245  -0.266133

