%chk=/home/boittier/MDCM/nms_sampling/methanol_geom.xyz.dir/methanol_749.chk
%nproc=8
%mem=16000MB
#p B2PLYPD3/Def2QZVP 

methanol

0 1
C  -5.183685  -1.259086   0.916165
O  -3.762024  -1.124200   0.870843
H  -5.515656  -2.179653   0.552907
H  -5.706956  -0.474648   0.361953
H  -5.484555  -1.164229   1.891953
H  -3.463849  -1.179566  -0.186516

