%chk=/home/boittier/MDCM/nms_sampling/methanol_geom.xyz.dir/methanol_3494.chk
%nproc=8
%mem=16000MB
#p B2PLYPD3/Def2QZVP 

methanol

0 1
C  -5.151738  -1.241777   0.935573
O  -3.787327  -1.129921   0.837618
H  -5.456857  -2.302581   0.456756
H  -5.648912  -0.329791   0.290253
H  -5.579100  -1.243582   1.952258
H  -3.454526  -1.232688   0.236854

