%chk=/home/boittier/MDCM/nms_sampling/methanol_geom.xyz.dir/methanol_1975.chk
%nproc=8
%mem=16000MB
#p B2PLYPD3/Def2QZVP 

methanol

0 1
C  -5.170090  -1.248721   0.901521
O  -3.768932  -1.121958   0.848150
H  -5.494608  -2.296417   0.512285
H  -5.714361  -0.463086   0.391663
H  -5.511420  -1.160173   2.085034
H  -3.507109  -1.229253   0.173282
