%chk=/home/boittier/MDCM/nms_sampling/methanol_geom.xyz.dir/methanol_3576.chk
%nproc=8
%mem=16000MB
#p B2PLYPD3/Def2QZVP 

methanol

0 1
C  -5.166983  -1.242169   0.912690
O  -3.792565  -1.131956   0.835382
H  -5.408225  -2.276767   0.547300
H  -5.544121  -0.364641   0.300056
H  -5.473469  -1.225071   2.101477
H  -3.454369  -1.200265   0.291186

