%chk=/home/boittier/MDCM/nms_sampling/methanol_geom.xyz.dir/methanol_1069.chk
%nproc=8
%mem=16000MB
#p B2PLYPD3/Def2QZVP 

methanol

0 1
C  -5.175719  -1.253568   0.916332
O  -3.765075  -1.121173   0.852887
H  -5.541840  -2.260861   0.517945
H  -5.678678  -0.456520   0.362318
H  -5.473206  -1.184901   1.991529
H  -3.525817  -1.203703   0.039732
