%chk=/home/boittier/MDCM/nms_sampling/methanol_geom.xyz.dir/methanol_1365.chk
%nproc=8
%mem=16000MB
#p B2PLYPD3/Def2QZVP 

methanol

0 1
C  -5.192286  -1.245548   0.918462
O  -3.764619  -1.128797   0.875589
H  -5.495406  -2.134784   0.576229
H  -5.542642  -0.556878   0.353960
H  -5.495485  -1.203583   1.904073
H  -3.497546  -1.184452  -0.321168

