%chk=/home/boittier/MDCM/nms_sampling/methanol_geom.xyz.dir/methanol_2001.chk
%nproc=8
%mem=16000MB
#p B2PLYPD3/Def2QZVP 

methanol

0 1
C  -5.187613  -1.261945   0.906669
O  -3.754249  -1.116128   0.880260
H  -5.567782  -2.147939   0.571907
H  -5.754677  -0.568916   0.383691
H  -5.452785  -1.147729   1.919952
H  -3.480437  -1.224108  -0.300197

