%chk=/home/boittier/MDCM/nms_sampling/methanol_geom.xyz.dir/methanol_74.chk
%nproc=8
%mem=16000MB
#p B2PLYPD3/Def2QZVP 

methanol

0 1
C  -5.177962  -1.258774   0.910281
O  -3.769927  -1.123358   0.866308
H  -5.459649  -2.196563   0.564980
H  -5.684980  -0.466157   0.349181
H  -5.464112  -1.156225   1.944842
H  -3.504633  -1.193500  -0.095975

