%chk=/home/boittier/MDCM/nms_sampling/methanol_geom.xyz.dir/methanol_185.chk
%nproc=8
%mem=16000MB
#p B2PLYPD3/Def2QZVP 

methanol

0 1
C  -5.191884  -1.255983   0.914985
O  -3.762512  -1.124851   0.851858
H  -5.470712  -2.248508   0.537199
H  -5.689434  -0.418521   0.317429
H  -5.451005  -1.175638   1.996242
H  -3.458105  -1.178596   0.092886
