%chk=/home/boittier/MDCM/nms_sampling/methanol_geom.xyz.dir/methanol_3478.chk
%nproc=8
%mem=16000MB
#p B2PLYPD3/Def2QZVP 

methanol

0 1
C  -5.196133  -1.262226   0.917281
O  -3.767857  -1.132982   0.858486
H  -5.397451  -2.236954   0.568893
H  -5.745651  -0.400577   0.256446
H  -5.439933  -1.081793   1.930825
H  -3.348685  -1.105215   0.052553

