%chk=/home/boittier/MDCM/nms_sampling/methanol_geom.xyz.dir/methanol_816.chk
%nproc=8
%mem=16000MB
#p B2PLYPD3/Def2QZVP 

methanol

0 1
C  -5.192749  -1.255720   0.910454
O  -3.759901  -1.124376   0.851275
H  -5.481676  -2.269951   0.563800
H  -5.709779  -0.416544   0.320990
H  -5.453688  -1.168846   2.008173
H  -3.456512  -1.176758   0.114760

