%chk=/home/boittier/MDCM/nms_sampling/methanol_geom.xyz.dir/methanol_102.chk
%nproc=8
%mem=16000MB
#p B2PLYPD3/Def2QZVP 

methanol

0 1
C  -5.191984  -1.251899   0.919019
O  -3.761138  -1.124665   0.868627
H  -5.527993  -2.230849   0.563397
H  -5.669130  -0.503417   0.360130
H  -5.442730  -1.161653   1.884112
H  -3.454177  -1.173734  -0.183533

