%chk=/home/boittier/MDCM/nms_sampling/methanol_geom.xyz.dir/methanol_1181.chk
%nproc=8
%mem=16000MB
#p B2PLYPD3/Def2QZVP 

methanol

0 1
C  -5.175934  -1.263625   0.914856
O  -3.767244  -1.119331   0.856978
H  -5.537236  -2.235233   0.541249
H  -5.713127  -0.424863   0.358678
H  -5.447548  -1.151653   1.960283
H  -3.483042  -1.207665   0.003027
