%chk=/home/boittier/MDCM/nms_sampling/methanol_geom.xyz.dir/methanol_3204.chk
%nproc=8
%mem=16000MB
#p B2PLYPD3/Def2QZVP 

methanol

0 1
C  -5.208591  -1.267183   0.901432
O  -3.745417  -1.113045   0.841066
H  -5.496939  -2.279236   0.531944
H  -5.793273  -0.470636   0.270243
H  -5.331948  -1.138546   2.165997
H  -3.531508  -1.183687   0.305504

