%chk=/home/boittier/MDCM/nms_sampling/methanol_geom.xyz.dir/methanol_813.chk
%nproc=8
%mem=16000MB
#p B2PLYPD3/Def2QZVP 

methanol

0 1
C  -5.185646  -1.257266   0.918674
O  -3.763370  -1.120336   0.848527
H  -5.531336  -2.275702   0.521785
H  -5.662921  -0.460734   0.325292
H  -5.436610  -1.135447   2.013822
H  -3.503079  -1.202542   0.093243

