%chk=/home/boittier/MDCM/nms_sampling/methanol_geom.xyz.dir/methanol_2218.chk
%nproc=8
%mem=16000MB
#p B2PLYPD3/Def2QZVP 

methanol

0 1
C  -5.177173  -1.250093   0.907792
O  -3.764593  -1.126226   0.880498
H  -5.487432  -2.125494   0.586816
H  -5.661695  -0.561339   0.361634
H  -5.571865  -1.165041   1.920730
H  -3.486795  -1.219738  -0.311477
