%chk=/home/boittier/MDCM/nms_sampling/methanol_geom.xyz.dir/methanol_2237.chk
%nproc=8
%mem=16000MB
#p B2PLYPD3/Def2QZVP 

methanol

0 1
C  -5.164581  -1.248539   0.903945
O  -3.776172  -1.127522   0.878601
H  -5.487325  -2.138830   0.599677
H  -5.698654  -0.547059   0.354785
H  -5.506614  -1.198581   1.940431
H  -3.476593  -1.182767  -0.260604

