%chk=/home/boittier/MDCM/nms_sampling/methanol_geom.xyz.dir/methanol_2954.chk
%nproc=8
%mem=16000MB
#p B2PLYPD3/Def2QZVP 

methanol

0 1
C  -5.170112  -1.247655   0.892758
O  -3.769292  -1.130362   0.887278
H  -5.634637  -2.128424   0.636279
H  -5.769776  -0.604031   0.435402
H  -5.454226  -1.195578   1.945570
H  -3.356539  -1.105478  -0.391588
