%chk=/home/boittier/MDCM/nms_sampling/methanol_geom.xyz.dir/methanol_135.chk
%nproc=8
%mem=16000MB
#p B2PLYPD3/Def2QZVP 

methanol

0 1
C  -5.183648  -1.262733   0.914456
O  -3.765842  -1.123037   0.853028
H  -5.494227  -2.247263   0.543284
H  -5.707963  -0.394753   0.338482
H  -5.444583  -1.152177   1.975231
H  -3.464285  -1.178275   0.075639
