%chk=/home/boittier/MDCM/nms_sampling/methanol_geom.xyz.dir/methanol_2674.chk
%nproc=8
%mem=16000MB
#p B2PLYPD3/Def2QZVP 

methanol

0 1
C  -5.189254  -1.257047   0.927364
O  -3.764937  -1.117754   0.889330
H  -5.561507  -2.166391   0.524099
H  -5.677038  -0.605157   0.406353
H  -5.315203  -1.172433   1.757128
H  -3.515747  -1.167500  -0.501324

