%chk=/home/boittier/MDCM/nms_sampling/methanol_geom.xyz.dir/methanol_2940.chk
%nproc=8
%mem=16000MB
#p B2PLYPD3/Def2QZVP 

methanol

0 1
C  -5.155493  -1.256171   0.906442
O  -3.786836  -1.128009   0.891549
H  -5.425552  -2.135551   0.627520
H  -5.699317  -0.465089   0.417853
H  -5.540457  -1.156796   1.774082
H  -3.437529  -1.215443  -0.418340

