%chk=/home/boittier/MDCM/nms_sampling/methanol_geom.xyz.dir/methanol_3565.chk
%nproc=8
%mem=16000MB
#p B2PLYPD3/Def2QZVP 

methanol

0 1
C  -5.152351  -1.235993   0.899495
O  -3.787017  -1.135359   0.836812
H  -5.406952  -2.267443   0.480371
H  -5.705884  -0.431106   0.319024
H  -5.541925  -1.244230   2.196513
H  -3.481906  -1.146626   0.370075
