%chk=/home/boittier/MDCM/nms_sampling/methanol_geom.xyz.dir/methanol_245.chk
%nproc=8
%mem=16000MB
#p B2PLYPD3/Def2QZVP 

methanol

0 1
C  -5.167557  -1.256947   0.916094
O  -3.772206  -1.122697   0.853606
H  -5.535863  -2.231074   0.556313
H  -5.667592  -0.440037   0.324593
H  -5.479126  -1.177199   1.993401
H  -3.515379  -1.196671   0.027915

