%chk=/home/boittier/MDCM/nms_sampling/methanol_geom.xyz.dir/methanol_1355.chk
%nproc=8
%mem=16000MB
#p B2PLYPD3/Def2QZVP 

methanol

0 1
C  -5.199057  -1.266328   0.905112
O  -3.753043  -1.119263   0.845356
H  -5.463424  -2.235622   0.536995
H  -5.742098  -0.404471   0.297180
H  -5.421934  -1.165704   2.098634
H  -3.507589  -1.184177   0.230432

