%chk=/home/boittier/MDCM/nms_sampling/methanol_geom.xyz.dir/methanol_1392.chk
%nproc=8
%mem=16000MB
#p B2PLYPD3/Def2QZVP 

methanol

0 1
C  -5.173686  -1.248055   0.915340
O  -3.765358  -1.126062   0.870627
H  -5.562551  -2.170497   0.586657
H  -5.611029  -0.532439   0.362870
H  -5.585788  -1.166188   1.927648
H  -3.478008  -1.228738  -0.244681
