%chk=/home/boittier/MDCM/nms_sampling/methanol_geom.xyz.dir/methanol_334.chk
%nproc=8
%mem=16000MB
#p B2PLYPD3/Def2QZVP 

methanol

0 1
C  -5.183049  -1.258106   0.911526
O  -3.764083  -1.119593   0.868800
H  -5.484945  -2.210316   0.581347
H  -5.687351  -0.470827   0.360219
H  -5.461467  -1.172048   1.911139
H  -3.515810  -1.225024  -0.143282
