%chk=/home/boittier/MDCM/nms_sampling/methanol_geom.xyz.dir/methanol_3115.chk
%nproc=8
%mem=16000MB
#p B2PLYPD3/Def2QZVP 

methanol

0 1
C  -5.185148  -1.243014   0.904193
O  -3.770129  -1.132256   0.861123
H  -5.337477  -2.303970   0.634400
H  -5.662178  -0.432575   0.313222
H  -5.533285  -1.143668   1.942758
H  -3.495466  -1.175760   0.033251
