%chk=/home/boittier/MDCM/nms_sampling/methanol_geom.xyz.dir/methanol_3082.chk
%nproc=8
%mem=16000MB
#p B2PLYPD3/Def2QZVP 

methanol

0 1
C  -5.188669  -1.257229   0.907103
O  -3.771218  -1.126623   0.894915
H  -5.481098  -2.210769   0.581509
H  -5.736129  -0.571595   0.473565
H  -5.362415  -1.066835   1.758068
H  -3.397008  -1.123719  -0.474951

