%chk=/home/boittier/MDCM/nms_sampling/methanol_geom.xyz.dir/methanol_2658.chk
%nproc=8
%mem=16000MB
#p B2PLYPD3/Def2QZVP 

methanol

0 1
C  -5.164267  -1.263642   0.911720
O  -3.782572  -1.120085   0.834489
H  -5.361254  -2.323487   0.554385
H  -5.766515  -0.341676   0.197824
H  -5.374786  -1.157129   2.088325
H  -3.569461  -1.182083   0.424027
