%chk=/home/boittier/MDCM/nms_sampling/methanol_geom.xyz.dir/methanol_3555.chk
%nproc=8
%mem=16000MB
#p B2PLYPD3/Def2QZVP 

methanol

0 1
C  -5.172007  -1.251859   0.895118
O  -3.769953  -1.111767   0.888525
H  -5.450907  -2.164422   0.587187
H  -5.670302  -0.683188   0.410934
H  -5.449613  -1.113207   1.953032
H  -3.628016  -1.304157  -0.377206

