%chk=/home/boittier/MDCM/nms_sampling/methanol_geom.xyz.dir/methanol_1323.chk
%nproc=8
%mem=16000MB
#p B2PLYPD3/Def2QZVP 

methanol

0 1
C  -5.191636  -1.253398   0.910084
O  -3.761088  -1.122640   0.848361
H  -5.447920  -2.318467   0.482540
H  -5.779421  -0.424962   0.356395
H  -5.445470  -1.142122   2.018370
H  -3.428705  -1.197341   0.201603

