%chk=/home/boittier/MDCM/nms_sampling/methanol_geom.xyz.dir/methanol_536.chk
%nproc=8
%mem=16000MB
#p B2PLYPD3/Def2QZVP 

methanol

0 1
C  -5.169832  -1.248963   0.914793
O  -3.773051  -1.123610   0.851803
H  -5.548057  -2.268415   0.522048
H  -5.673435  -0.467227   0.363093
H  -5.472795  -1.179273   2.008912
H  -3.468968  -1.204958   0.053017

