%chk=/home/boittier/MDCM/nms_sampling/methanol_geom.xyz.dir/methanol_796.chk
%nproc=8
%mem=16000MB
#p B2PLYPD3/Def2QZVP 

methanol

0 1
C  -5.170672  -1.246182   0.919985
O  -3.772571  -1.124554   0.862753
H  -5.548650  -2.233517   0.531109
H  -5.661026  -0.522849   0.351596
H  -5.479607  -1.178951   1.939906
H  -3.472607  -1.201800  -0.116478
