%chk=/home/boittier/MDCM/nms_sampling/methanol_geom.xyz.dir/methanol_112.chk
%nproc=8
%mem=16000MB
#p B2PLYPD3/Def2QZVP 

methanol

0 1
C  -5.186156  -1.262659   0.920531
O  -3.762012  -1.119061   0.867527
H  -5.543876  -2.174181   0.564899
H  -5.666486  -0.473650   0.335911
H  -5.445742  -1.171302   1.901526
H  -3.488408  -1.215781  -0.179651
