%chk=/home/boittier/MDCM/nms_sampling/methanol_geom.xyz.dir/methanol_2124.chk
%nproc=8
%mem=16000MB
#p B2PLYPD3/Def2QZVP 

methanol

0 1
C  -5.176162  -1.248673   0.904488
O  -3.766722  -1.127865   0.875741
H  -5.487542  -2.167233   0.627951
H  -5.647144  -0.520779   0.363856
H  -5.540149  -1.187252   1.929998
H  -3.509082  -1.186619  -0.244319

