%chk=/home/boittier/MDCM/nms_sampling/methanol_geom.xyz.dir/methanol_722.chk
%nproc=8
%mem=16000MB
#p B2PLYPD3/Def2QZVP 

methanol

0 1
C  -5.185042  -1.256434   0.911839
O  -3.768586  -1.123809   0.849252
H  -5.510512  -2.268280   0.528427
H  -5.675861  -0.438047   0.352828
H  -5.429698  -1.139209   2.029909
H  -3.440254  -1.184320   0.112389

