%chk=/home/boittier/MDCM/nms_sampling/methanol_geom.xyz.dir/methanol_2868.chk
%nproc=8
%mem=16000MB
#p B2PLYPD3/Def2QZVP 

methanol

0 1
C  -5.191889  -1.247861   0.887131
O  -3.771921  -1.121651   0.844133
H  -5.457358  -2.319572   0.586953
H  -5.733981  -0.477198   0.344339
H  -5.347430  -1.155133   2.180231
H  -3.393394  -1.204066   0.284421

