%chk=/home/boittier/MDCM/nms_sampling/methanol_geom.xyz.dir/methanol_2383.chk
%nproc=8
%mem=16000MB
#p B2PLYPD3/Def2QZVP 

methanol

0 1
C  -5.178277  -1.246422   0.920685
O  -3.761094  -1.126349   0.873511
H  -5.594156  -2.186262   0.532440
H  -5.655110  -0.595112   0.372685
H  -5.525669  -1.151000   1.906188
H  -3.480128  -1.177022  -0.290844
