%chk=/home/boittier/MDCM/nms_sampling/methanol_geom.xyz.dir/methanol_347.chk
%nproc=8
%mem=16000MB
#p B2PLYPD3/Def2QZVP 

methanol

0 1
C  -5.179372  -1.251706   0.909185
O  -3.764648  -1.122537   0.872723
H  -5.518761  -2.175954   0.563549
H  -5.696901  -0.532079   0.371252
H  -5.485745  -1.188503   1.938958
H  -3.482366  -1.210311  -0.204081

