%chk=/home/boittier/MDCM/nms_sampling/methanol_geom.xyz.dir/methanol_3078.chk
%nproc=8
%mem=16000MB
#p B2PLYPD3/Def2QZVP 

methanol

0 1
C  -5.153903  -1.258520   0.912325
O  -3.771039  -1.111668   0.895270
H  -5.599904  -2.098088   0.528782
H  -5.644320  -0.653215   0.488627
H  -5.507059  -1.151757   1.830834
H  -3.632943  -1.292293  -0.584134

