%chk=/home/boittier/MDCM/nms_sampling/methanol_geom.xyz.dir/methanol_788.chk
%nproc=8
%mem=16000MB
#p B2PLYPD3/Def2QZVP 

methanol

0 1
C  -5.175152  -1.258091   0.915534
O  -3.767957  -1.119097   0.851438
H  -5.550951  -2.249698   0.529193
H  -5.704816  -0.463672   0.325684
H  -5.436234  -1.160617   2.018964
H  -3.489998  -1.211125   0.068948

