%chk=/home/boittier/MDCM/nms_sampling/methanol_geom.xyz.dir/methanol_1857.chk
%nproc=8
%mem=16000MB
#p B2PLYPD3/Def2QZVP 

methanol

0 1
C  -5.179094  -1.244872   0.903908
O  -3.765711  -1.126152   0.852807
H  -5.472035  -2.242820   0.540503
H  -5.682328  -0.447742   0.363590
H  -5.541458  -1.219730   2.054579
H  -3.472392  -1.220508   0.099100
