%chk=/home/boittier/MDCM/nms_sampling/methanol_geom.xyz.dir/methanol_3076.chk
%nproc=8
%mem=16000MB
#p B2PLYPD3/Def2QZVP 

methanol

0 1
C  -5.194959  -1.244650   0.900738
O  -3.767661  -1.129991   0.886933
H  -5.524145  -2.173107   0.650741
H  -5.665409  -0.611696   0.394840
H  -5.407040  -1.143685   1.893878
H  -3.362291  -1.139137  -0.400691
