%chk=/home/boittier/MDCM/nms_sampling/methanol_geom.xyz.dir/methanol_3258.chk
%nproc=8
%mem=16000MB
#p B2PLYPD3/Def2QZVP 

methanol

0 1
C  -5.169095  -1.236529   0.911257
O  -3.784511  -1.125179   0.878676
H  -5.388566  -2.300685   0.535573
H  -5.681435  -0.618097   0.393832
H  -5.456513  -1.075829   1.861547
H  -3.477679  -1.235573  -0.240840

