%chk=/home/boittier/MDCM/nms_sampling/methanol_geom.xyz.dir/methanol_3307.chk
%nproc=8
%mem=16000MB
#p B2PLYPD3/Def2QZVP 

methanol

0 1
C  -5.178381  -1.264700   0.929598
O  -3.774790  -1.111773   0.824099
H  -5.588321  -2.386680   0.489489
H  -5.661076  -0.408571   0.261878
H  -5.298511  -1.087122   2.088418
H  -3.498007  -1.232037   0.385365
