%chk=/home/boittier/MDCM/nms_sampling/methanol_geom.xyz.dir/methanol_1529.chk
%nproc=8
%mem=16000MB
#p B2PLYPD3/Def2QZVP 

methanol

0 1
C  -5.181241  -1.266680   0.912700
O  -3.769367  -1.121123   0.850391
H  -5.548842  -2.220814   0.582551
H  -5.659233  -0.432281   0.304214
H  -5.401857  -1.127352   2.036730
H  -3.474536  -1.174953   0.070441

