%chk=/home/boittier/MDCM/nms_sampling/methanol_geom.xyz.dir/methanol_1393.chk
%nproc=8
%mem=16000MB
#p B2PLYPD3/Def2QZVP 

methanol

0 1
C  -5.179123  -1.253740   0.922111
O  -3.773798  -1.127138   0.842852
H  -5.543988  -2.249582   0.530883
H  -5.643468  -0.435822   0.274535
H  -5.448903  -1.152457   2.048328
H  -3.403708  -1.173028   0.150948

