%chk=/home/boittier/MDCM/nms_sampling/methanol_geom.xyz.dir/methanol_133.chk
%nproc=8
%mem=16000MB
#p B2PLYPD3/Def2QZVP 

methanol

0 1
C  -5.172359  -1.255588   0.910655
O  -3.773747  -1.120384   0.859988
H  -5.465314  -2.265249   0.532681
H  -5.708596  -0.459697   0.373295
H  -5.437075  -1.151105   1.957867
H  -3.512543  -1.215880  -0.000540
