%chk=/home/boittier/MDCM/nms_sampling/methanol_geom.xyz.dir/methanol_719.chk
%nproc=8
%mem=16000MB
#p B2PLYPD3/Def2QZVP 

methanol

0 1
C  -5.181720  -1.260581   0.907736
O  -3.762523  -1.119237   0.869612
H  -5.518890  -2.173979   0.578059
H  -5.708491  -0.479969   0.368281
H  -5.459245  -1.187100   1.945132
H  -3.501047  -1.215568  -0.152448

