%chk=/home/boittier/MDCM/nms_sampling/methanol_geom.xyz.dir/methanol_1540.chk
%nproc=8
%mem=16000MB
#p B2PLYPD3/Def2QZVP 

methanol

0 1
C  -5.184253  -1.264439   0.917236
O  -3.767728  -1.119510   0.877532
H  -5.572517  -2.119372   0.598888
H  -5.662428  -0.541391   0.329513
H  -5.385675  -1.154790   1.894307
H  -3.456365  -1.189708  -0.326934

