%chk=/home/boittier/MDCM/nms_sampling/methanol_geom.xyz.dir/methanol_3469.chk
%nproc=8
%mem=16000MB
#p B2PLYPD3/Def2QZVP 

methanol

0 1
C  -5.187549  -1.245546   0.927928
O  -3.751427  -1.125554   0.819925
H  -5.610610  -2.472419   0.459237
H  -5.759615  -0.329643   0.334750
H  -5.548917  -1.139975   2.043908
H  -3.384512  -1.191217   0.481214

