%chk=/home/boittier/MDCM/nms_sampling/methanol_geom.xyz.dir/methanol_1137.chk
%nproc=8
%mem=16000MB
#p B2PLYPD3/Def2QZVP 

methanol

0 1
C  -5.177364  -1.264349   0.916981
O  -3.766724  -1.121053   0.867805
H  -5.580249  -2.163895   0.589688
H  -5.662787  -0.477242   0.344153
H  -5.456243  -1.149908   1.920037
H  -3.471228  -1.194789  -0.193675
