%chk=/home/boittier/MDCM/nms_sampling/methanol_geom.xyz.dir/methanol_1630.chk
%nproc=8
%mem=16000MB
#p B2PLYPD3/Def2QZVP 

methanol

0 1
C  -5.186966  -1.253674   0.908461
O  -3.759510  -1.122633   0.856275
H  -5.508111  -2.291476   0.568789
H  -5.782627  -0.423840   0.345921
H  -5.465287  -1.174087   1.966870
H  -3.421793  -1.193742   0.069760
