%chk=/home/boittier/MDCM/nms_sampling/methanol_geom.xyz.dir/methanol_2599.chk
%nproc=8
%mem=16000MB
#p B2PLYPD3/Def2QZVP 

methanol

0 1
C  -5.160943  -1.256382   0.942309
O  -3.782501  -1.117884   0.878211
H  -5.543187  -2.198922   0.545427
H  -5.605193  -0.544476   0.312565
H  -5.391484  -1.157514   1.736234
H  -3.578489  -1.218529  -0.400947
