%chk=/home/boittier/MDCM/nms_sampling/methanol_geom.xyz.dir/methanol_969.chk
%nproc=8
%mem=16000MB
#p B2PLYPD3/Def2QZVP 

methanol

0 1
C  -5.178596  -1.253210   0.912505
O  -3.765179  -1.124597   0.869287
H  -5.478693  -2.189939   0.551167
H  -5.691684  -0.484268   0.362338
H  -5.527818  -1.173374   1.922191
H  -3.483577  -1.211928  -0.147649

