%chk=/home/boittier/MDCM/nms_sampling/methanol_geom.xyz.dir/methanol_1718.chk
%nproc=8
%mem=16000MB
#p B2PLYPD3/Def2QZVP 

methanol

0 1
C  -5.194040  -1.257968   0.909414
O  -3.754643  -1.124170   0.883918
H  -5.491048  -2.152057   0.598143
H  -5.751252  -0.518083   0.363787
H  -5.512524  -1.144339   1.848687
H  -3.415084  -1.198142  -0.324496
