%chk=/home/boittier/MDCM/nms_sampling/methanol_geom.xyz.dir/methanol_2754.chk
%nproc=8
%mem=16000MB
#p B2PLYPD3/Def2QZVP 

methanol

0 1
C  -5.185508  -1.245284   0.920686
O  -3.762003  -1.113893   0.819078
H  -5.536983  -2.397476   0.487788
H  -5.552023  -0.396840   0.320888
H  -5.458424  -1.215041   2.155468
H  -3.615895  -1.299645   0.448824
