%chk=/home/boittier/MDCM/nms_sampling/methanol_geom.xyz.dir/methanol_3222.chk
%nproc=8
%mem=16000MB
#p B2PLYPD3/Def2QZVP 

methanol

0 1
C  -5.182604  -1.256273   0.924966
O  -3.762942  -1.114107   0.843608
H  -5.442868  -2.356171   0.455395
H  -5.656080  -0.420778   0.356259
H  -5.445085  -1.139025   1.966884
H  -3.636409  -1.263594   0.184855

