%chk=/home/boittier/MDCM/nms_sampling/methanol_geom.xyz.dir/methanol_321.chk
%nproc=8
%mem=16000MB
#p B2PLYPD3/Def2QZVP 

methanol

0 1
C  -5.177683  -1.252407   0.914888
O  -3.765516  -1.124354   0.868956
H  -5.483715  -2.201128   0.553225
H  -5.698103  -0.479291   0.354279
H  -5.499831  -1.196190   1.905871
H  -3.504798  -1.195219  -0.147363

