%chk=/home/boittier/MDCM/nms_sampling/methanol_geom.xyz.dir/methanol_3350.chk
%nproc=8
%mem=16000MB
#p B2PLYPD3/Def2QZVP 

methanol

0 1
C  -5.170176  -1.257125   0.911975
O  -3.779727  -1.119941   0.839194
H  -5.353364  -2.332387   0.595481
H  -5.657945  -0.326310   0.253383
H  -5.485573  -1.151540   2.026721
H  -3.554307  -1.272868   0.314006

