%chk=/home/boittier/MDCM/nms_sampling/methanol_geom.xyz.dir/methanol_1997.chk
%nproc=8
%mem=16000MB
#p B2PLYPD3/Def2QZVP 

methanol

0 1
C  -5.163107  -1.251074   0.919469
O  -3.776420  -1.128235   0.841529
H  -5.543058  -2.251019   0.492813
H  -5.657815  -0.431051   0.313963
H  -5.517644  -1.170697   2.068681
H  -3.463688  -1.174531   0.181642

