%chk=/home/boittier/MDCM/nms_sampling/methanol_geom.xyz.dir/methanol_754.chk
%nproc=8
%mem=16000MB
#p B2PLYPD3/Def2QZVP 

methanol

0 1
C  -5.184509  -1.250177   0.908568
O  -3.764923  -1.123669   0.850643
H  -5.481524  -2.281512   0.525359
H  -5.664288  -0.465696   0.365418
H  -5.469259  -1.158448   2.040650
H  -3.506905  -1.198710   0.107472

