%chk=/home/boittier/MDCM/nms_sampling/methanol_geom.xyz.dir/methanol_1151.chk
%nproc=8
%mem=16000MB
#p B2PLYPD3/Def2QZVP 

methanol

0 1
C  -5.174256  -1.252666   0.915062
O  -3.772746  -1.124287   0.864990
H  -5.525243  -2.207260   0.576697
H  -5.618160  -0.502175   0.354403
H  -5.477879  -1.154474   1.943365
H  -3.493548  -1.203457  -0.145821
