%chk=/home/boittier/MDCM/nms_sampling/methanol_geom.xyz.dir/methanol_19.chk
%nproc=8
%mem=16000MB
#p B2PLYPD3/Def2QZVP 

methanol

0 1
C  -5.181187  -1.254845   0.917569
O  -3.766466  -1.121438   0.850331
H  -5.474797  -2.282604   0.545450
H  -5.663659  -0.414378   0.323349
H  -5.456278  -1.181391   1.975621
H  -3.538318  -1.207981   0.095816
