%chk=/home/boittier/MDCM/nms_sampling/methanol_geom.xyz.dir/methanol_2701.chk
%nproc=8
%mem=16000MB
#p B2PLYPD3/Def2QZVP 

methanol

0 1
C  -5.211582  -1.245720   0.898189
O  -3.758899  -1.131210   0.879255
H  -5.476962  -2.188031   0.605454
H  -5.654733  -0.569367   0.418186
H  -5.387226  -1.165253   1.942487
H  -3.382939  -1.113212  -0.272177

