%chk=/home/boittier/MDCM/nms_sampling/methanol_geom.xyz.dir/methanol_777.chk
%nproc=8
%mem=16000MB
#p B2PLYPD3/Def2QZVP 

methanol

0 1
C  -5.183507  -1.246588   0.912477
O  -3.765834  -1.124525   0.873118
H  -5.470477  -2.222472   0.542573
H  -5.677677  -0.540658   0.385495
H  -5.470323  -1.172447   1.901504
H  -3.501339  -1.196390  -0.203583

