%chk=/home/boittier/MDCM/nms_sampling/methanol_geom.xyz.dir/methanol_1113.chk
%nproc=8
%mem=16000MB
#p B2PLYPD3/Def2QZVP 

methanol

0 1
C  -5.181298  -1.253920   0.911025
O  -3.764077  -1.124906   0.856818
H  -5.507763  -2.255742   0.557741
H  -5.723786  -0.437598   0.346230
H  -5.475408  -1.176699   1.975847
H  -3.461237  -1.175423   0.030923

