%chk=/home/boittier/MDCM/nms_sampling/methanol_geom.xyz.dir/methanol_1571.chk
%nproc=8
%mem=16000MB
#p B2PLYPD3/Def2QZVP 

methanol

0 1
C  -5.198221  -1.261091   0.903505
O  -3.757267  -1.118329   0.864308
H  -5.501028  -2.231322   0.558123
H  -5.706993  -0.487283   0.397365
H  -5.411860  -1.128806   1.982967
H  -3.465594  -1.213292  -0.062299

