%chk=/home/boittier/MDCM/nms_sampling/methanol_geom.xyz.dir/methanol_2135.chk
%nproc=8
%mem=16000MB
#p B2PLYPD3/Def2QZVP 

methanol

0 1
C  -5.168256  -1.261868   0.926160
O  -3.777121  -1.122060   0.861857
H  -5.483592  -2.212960   0.560367
H  -5.640976  -0.450418   0.291599
H  -5.447963  -1.135666   1.894493
H  -3.539747  -1.197274  -0.097018
