%chk=/home/boittier/MDCM/nms_sampling/methanol_geom.xyz.dir/methanol_1456.chk
%nproc=8
%mem=16000MB
#p B2PLYPD3/Def2QZVP 

methanol

0 1
C  -5.175678  -1.257200   0.922558
O  -3.773520  -1.121061   0.845038
H  -5.517393  -2.266669   0.551152
H  -5.618245  -0.426571   0.282130
H  -5.421945  -1.166794   2.012317
H  -3.527992  -1.203728   0.120304
