%chk=/home/boittier/MDCM/nms_sampling/methanol_geom.xyz.dir/methanol_548.chk
%nproc=8
%mem=16000MB
#p B2PLYPD3/Def2QZVP 

methanol

0 1
C  -5.181186  -1.253653   0.909923
O  -3.764470  -1.123482   0.859013
H  -5.503704  -2.262721   0.531280
H  -5.749405  -0.451267   0.374415
H  -5.452170  -1.176812   1.966450
H  -3.460049  -1.178061   0.015663
