%chk=/home/boittier/MDCM/nms_sampling/methanol_geom.xyz.dir/methanol_1647.chk
%nproc=8
%mem=16000MB
#p B2PLYPD3/Def2QZVP 

methanol

0 1
C  -5.171771  -1.254529   0.908771
O  -3.764371  -1.116904   0.880846
H  -5.499071  -2.214987   0.577690
H  -5.716125  -0.562261   0.400235
H  -5.489061  -1.138420   1.865869
H  -3.577760  -1.244587  -0.299183

