%chk=/home/boittier/MDCM/nms_sampling/methanol_geom.xyz.dir/methanol_2643.chk
%nproc=8
%mem=16000MB
#p B2PLYPD3/Def2QZVP 

methanol

0 1
C  -5.201301  -1.257318   0.901934
O  -3.758594  -1.128369   0.883088
H  -5.491977  -2.047545   0.606785
H  -5.665226  -0.563477   0.342588
H  -5.437213  -1.204873   1.967919
H  -3.422157  -1.137191  -0.336065
