%chk=/home/boittier/MDCM/nms_sampling/methanol_geom.xyz.dir/methanol_2788.chk
%nproc=8
%mem=16000MB
#p B2PLYPD3/Def2QZVP 

methanol

0 1
C  -5.211560  -1.275179   0.931345
O  -3.742951  -1.113639   0.891003
H  -5.626868  -2.144147   0.557541
H  -5.654523  -0.535551   0.436353
H  -5.370566  -1.104325   1.694049
H  -3.502979  -1.188801  -0.571249
