%chk=/home/boittier/MDCM/nms_sampling/methanol_geom.xyz.dir/methanol_1312.chk
%nproc=8
%mem=16000MB
#p B2PLYPD3/Def2QZVP 

methanol

0 1
C  -5.170601  -1.247295   0.900772
O  -3.772483  -1.124042   0.873641
H  -5.504907  -2.205400   0.576534
H  -5.695058  -0.553829   0.408742
H  -5.486661  -1.163488   1.963241
H  -3.478136  -1.209472  -0.193868

