%chk=/home/boittier/MDCM/nms_sampling/methanol_geom.xyz.dir/methanol_2637.chk
%nproc=8
%mem=16000MB
#p B2PLYPD3/Def2QZVP 

methanol

0 1
C  -5.206549  -1.250276   0.930983
O  -3.755259  -1.132229   0.879769
H  -5.540980  -2.200318   0.661680
H  -5.540953  -0.500505   0.327628
H  -5.518373  -1.122597   1.742337
H  -3.413528  -1.151610  -0.425775

