%chk=/home/boittier/MDCM/nms_sampling/methanol_geom.xyz.dir/methanol_1109.chk
%nproc=8
%mem=16000MB
#p B2PLYPD3/Def2QZVP 

methanol

0 1
C  -5.176780  -1.247935   0.921801
O  -3.770636  -1.124405   0.848202
H  -5.491666  -2.310289   0.511851
H  -5.664578  -0.462278   0.315259
H  -5.464541  -1.150551   1.986842
H  -3.501735  -1.195001   0.109466

