%chk=/home/boittier/MDCM/nms_sampling/methanol_geom.xyz.dir/methanol_2846.chk
%nproc=8
%mem=16000MB
#p B2PLYPD3/Def2QZVP 

methanol

0 1
C  -5.187923  -1.260287   0.919126
O  -3.761548  -1.116298   0.870321
H  -5.515394  -2.144824   0.629927
H  -5.495778  -0.540934   0.310710
H  -5.521161  -1.122759   1.929787
H  -3.603166  -1.296349  -0.278390
