%chk=/home/boittier/MDCM/nms_sampling/methanol_geom.xyz.dir/methanol_492.chk
%nproc=8
%mem=16000MB
#p B2PLYPD3/Def2QZVP 

methanol

0 1
C  -5.186949  -1.251983   0.913022
O  -3.761611  -1.125346   0.867722
H  -5.505920  -2.227950   0.583166
H  -5.703404  -0.481353   0.349809
H  -5.475391  -1.174191   1.910012
H  -3.457991  -1.176989  -0.133542
