%chk=/home/boittier/MDCM/nms_sampling/methanol_geom.xyz.dir/methanol_2348.chk
%nproc=8
%mem=16000MB
#p B2PLYPD3/Def2QZVP 

methanol

0 1
C  -5.186842  -1.255089   0.907019
O  -3.756215  -1.121935   0.872201
H  -5.518113  -2.248657   0.564926
H  -5.784082  -0.495577   0.400211
H  -5.469807  -1.150292   1.896036
H  -3.460590  -1.182993  -0.153222
