%chk=/home/boittier/MDCM/nms_sampling/methanol_geom.xyz.dir/methanol_3588.chk
%nproc=8
%mem=16000MB
#p B2PLYPD3/Def2QZVP 

methanol

0 1
C  -5.180918  -1.237123   0.929790
O  -3.762857  -1.122627   0.866929
H  -5.567374  -2.249128   0.512195
H  -5.592800  -0.614540   0.343404
H  -5.538748  -1.149827   1.899118
H  -3.506219  -1.256649  -0.233700
