%chk=/home/boittier/MDCM/nms_sampling/methanol_geom.xyz.dir/methanol_114.chk
%nproc=8
%mem=16000MB
#p B2PLYPD3/Def2QZVP 

methanol

0 1
C  -5.177247  -1.261340   0.916851
O  -3.766166  -1.120615   0.852488
H  -5.566529  -2.235678   0.508633
H  -5.705522  -0.456013   0.349912
H  -5.433131  -1.149519   2.006819
H  -3.478587  -1.183728   0.045014
