%chk=/home/boittier/MDCM/nms_sampling/methanol_geom.xyz.dir/methanol_575.chk
%nproc=8
%mem=16000MB
#p B2PLYPD3/Def2QZVP 

methanol

0 1
C  -5.184377  -1.261377   0.919407
O  -3.766265  -1.118618   0.850617
H  -5.520592  -2.282207   0.518814
H  -5.698089  -0.420541   0.343726
H  -5.406127  -1.141249   1.968295
H  -3.477312  -1.209016   0.082955
