%chk=/home/boittier/MDCM/nms_sampling/methanol_geom.xyz.dir/methanol_1520.chk
%nproc=8
%mem=16000MB
#p B2PLYPD3/Def2QZVP 

methanol

0 1
C  -5.162744  -1.259192   0.905954
O  -3.772478  -1.121768   0.844327
H  -5.512799  -2.265326   0.541219
H  -5.710599  -0.419176   0.331687
H  -5.495594  -1.148184   2.091500
H  -3.531540  -1.201413   0.207617

