%chk=/home/boittier/MDCM/nms_sampling/methanol_geom.xyz.dir/methanol_136.chk
%nproc=8
%mem=16000MB
#p B2PLYPD3/Def2QZVP 

methanol

0 1
C  -5.177218  -1.256024   0.912149
O  -3.762310  -1.121322   0.868210
H  -5.503494  -2.211586   0.553972
H  -5.720009  -0.503188   0.354010
H  -5.496190  -1.157492   1.931905
H  -3.525952  -1.204812  -0.130347

