%chk=/home/boittier/MDCM/nms_sampling/methanol_geom.xyz.dir/methanol_2571.chk
%nproc=8
%mem=16000MB
#p B2PLYPD3/Def2QZVP 

methanol

0 1
C  -5.182775  -1.249941   0.924780
O  -3.757944  -1.129518   0.834748
H  -5.594700  -2.387568   0.453091
H  -5.767699  -0.333812   0.392144
H  -5.513489  -1.168206   1.977493
H  -3.372468  -1.131995   0.291565

