%chk=/home/boittier/MDCM/nms_sampling/methanol_geom.xyz.dir/methanol_3599.chk
%nproc=8
%mem=16000MB
#p B2PLYPD3/Def2QZVP 

methanol

0 1
C  -5.207764  -1.253529   0.934216
O  -3.750590  -1.125610   0.833909
H  -5.483409  -2.339133   0.507576
H  -5.677560  -0.348766   0.231251
H  -5.528077  -1.134430   1.981141
H  -3.387897  -1.218146   0.292338

