%chk=/home/boittier/MDCM/nms_sampling/methanol_geom.xyz.dir/methanol_3171.chk
%nproc=8
%mem=16000MB
#p B2PLYPD3/Def2QZVP 

methanol

0 1
C  -5.172562  -1.263954   0.915770
O  -3.767583  -1.111602   0.845399
H  -5.491403  -2.316314   0.460911
H  -5.864293  -0.397639   0.321386
H  -5.360072  -1.185008   2.008177
H  -3.504855  -1.232265   0.249140
