%chk=/home/boittier/MDCM/nms_sampling/methanol_geom.xyz.dir/methanol_3146.chk
%nproc=8
%mem=16000MB
#p B2PLYPD3/Def2QZVP 

methanol

0 1
C  -5.165831  -1.248440   0.920838
O  -3.775563  -1.135561   0.819959
H  -5.618650  -2.295892   0.561197
H  -5.620294  -0.311279   0.249660
H  -5.536820  -1.224803   2.155330
H  -3.380093  -1.116683   0.430290

