%chk=/home/boittier/MDCM/nms_sampling/methanol_geom.xyz.dir/methanol_2980.chk
%nproc=8
%mem=16000MB
#p B2PLYPD3/Def2QZVP 

methanol

0 1
C  -5.163959  -1.267037   0.904936
O  -3.779257  -1.119105   0.885881
H  -5.453533  -2.188385   0.661384
H  -5.670723  -0.517223   0.382799
H  -5.409130  -1.084739   1.827405
H  -3.597829  -1.190279  -0.361052
