%chk=/home/boittier/MDCM/nms_sampling/methanol_geom.xyz.dir/methanol_1576.chk
%nproc=8
%mem=16000MB
#p B2PLYPD3/Def2QZVP 

methanol

0 1
C  -5.163142  -1.247991   0.910236
O  -3.774466  -1.128802   0.849344
H  -5.432369  -2.302330   0.523314
H  -5.763720  -0.422266   0.313333
H  -5.536090  -1.156134   2.016559
H  -3.482510  -1.173457   0.187461
