%chk=/home/boittier/MDCM/nms_sampling/methanol_geom.xyz.dir/methanol_857.chk
%nproc=8
%mem=16000MB
#p B2PLYPD3/Def2QZVP 

methanol

0 1
C  -5.168254  -1.247672   0.917491
O  -3.774082  -1.124009   0.851645
H  -5.538093  -2.256441   0.501868
H  -5.668157  -0.475817   0.352603
H  -5.480779  -1.188832   2.010529
H  -3.477782  -1.207512   0.051490
