%chk=/home/boittier/MDCM/nms_sampling/methanol_geom.xyz.dir/methanol_2902.chk
%nproc=8
%mem=16000MB
#p B2PLYPD3/Def2QZVP 

methanol

0 1
C  -5.156070  -1.242748   0.908536
O  -3.789453  -1.133830   0.886148
H  -5.542172  -2.058756   0.631066
H  -5.512645  -0.550988   0.420908
H  -5.559578  -1.233512   1.888666
H  -3.438020  -1.193454  -0.481260
