%chk=/home/boittier/MDCM/nms_sampling/methanol_geom.xyz.dir/methanol_3287.chk
%nproc=8
%mem=16000MB
#p B2PLYPD3/Def2QZVP 

methanol

0 1
C  -5.161227  -1.256640   0.923037
O  -3.767433  -1.115190   0.890254
H  -5.555317  -2.196842   0.545971
H  -5.644519  -0.553446   0.477879
H  -5.504867  -1.159283   1.719966
H  -3.649032  -1.253325  -0.516212
