%chk=/home/boittier/MDCM/nms_sampling/methanol_geom.xyz.dir/methanol_552.chk
%nproc=8
%mem=16000MB
#p B2PLYPD3/Def2QZVP 

methanol

0 1
C  -5.174256  -1.254672   0.914910
O  -3.766035  -1.119043   0.868065
H  -5.557805  -2.197672   0.554407
H  -5.681953  -0.531957   0.358477
H  -5.465561  -1.172753   1.940543
H  -3.518115  -1.223518  -0.174827
