%chk=/home/boittier/MDCM/nms_sampling/methanol_geom.xyz.dir/methanol_446.chk
%nproc=8
%mem=16000MB
#p B2PLYPD3/Def2QZVP 

methanol

0 1
C  -5.178944  -1.259303   0.910477
O  -3.768766  -1.120459   0.853019
H  -5.493940  -2.254815   0.545203
H  -5.721616  -0.450791   0.321338
H  -5.409678  -1.155501   2.020369
H  -3.498589  -1.188048   0.089990
