%chk=/home/boittier/MDCM/nms_sampling/methanol_geom.xyz.dir/methanol_3243.chk
%nproc=8
%mem=16000MB
#p B2PLYPD3/Def2QZVP 

methanol

0 1
C  -5.160737  -1.240963   0.916087
O  -3.780427  -1.126673   0.835103
H  -5.375123  -2.391796   0.466395
H  -5.785261  -0.374308   0.285653
H  -5.538340  -1.165270   2.044332
H  -3.455405  -1.233389   0.408605

