%chk=/home/boittier/MDCM/nms_sampling/methanol_geom.xyz.dir/methanol_2808.chk
%nproc=8
%mem=16000MB
#p B2PLYPD3/Def2QZVP 

methanol

0 1
C  -5.184708  -1.273976   0.931684
O  -3.749736  -1.117323   0.851366
H  -5.627568  -2.223759   0.587206
H  -5.688952  -0.338582   0.287256
H  -5.553646  -1.142784   1.889740
H  -3.479983  -1.235672  -0.004028
