%chk=/home/boittier/MDCM/nms_sampling/methanol_geom.xyz.dir/methanol_2777.chk
%nproc=8
%mem=16000MB
#p B2PLYPD3/Def2QZVP 

methanol

0 1
C  -5.180467  -1.258931   0.918357
O  -3.753605  -1.121293   0.898919
H  -5.477863  -2.090959   0.532698
H  -5.728459  -0.555888   0.427157
H  -5.572894  -1.180832   1.732606
H  -3.561644  -1.220668  -0.556827

