%chk=/home/boittier/MDCM/nms_sampling/methanol_geom.xyz.dir/methanol_681.chk
%nproc=8
%mem=16000MB
#p B2PLYPD3/Def2QZVP 

methanol

0 1
C  -5.191782  -1.258002   0.910116
O  -3.760950  -1.122414   0.853589
H  -5.456032  -2.271994   0.555388
H  -5.712675  -0.417985   0.332829
H  -5.459847  -1.144126   1.990278
H  -3.469430  -1.201513   0.095767

