%chk=/home/boittier/MDCM/nms_sampling/methanol_geom.xyz.dir/methanol_2403.chk
%nproc=8
%mem=16000MB
#p B2PLYPD3/Def2QZVP 

methanol

0 1
C  -5.163969  -1.264768   0.928483
O  -3.783837  -1.114820   0.823186
H  -5.412801  -2.380315   0.515989
H  -5.657139  -0.294275   0.214002
H  -5.417441  -1.120896   2.049492
H  -3.573636  -1.276258   0.476130
