%chk=/home/boittier/MDCM/nms_sampling/methanol_geom.xyz.dir/methanol_280.chk
%nproc=8
%mem=16000MB
#p B2PLYPD3/Def2QZVP 

methanol

0 1
C  -5.182004  -1.256407   0.911572
O  -3.768790  -1.122800   0.873579
H  -5.501851  -2.198605   0.572572
H  -5.699552  -0.499487   0.378952
H  -5.432114  -1.157454   1.891087
H  -3.454216  -1.190876  -0.212171
