%chk=/home/boittier/MDCM/nms_sampling/methanol_geom.xyz.dir/methanol_3227.chk
%nproc=8
%mem=16000MB
#p B2PLYPD3/Def2QZVP 

methanol

0 1
C  -5.210549  -1.262851   0.900885
O  -3.751636  -1.110725   0.885809
H  -5.522112  -2.141096   0.579048
H  -5.745462  -0.652673   0.371715
H  -5.302924  -1.124073   1.948482
H  -3.469001  -1.235289  -0.349762

