%chk=/home/boittier/MDCM/nms_sampling/methanol_geom.xyz.dir/methanol_383.chk
%nproc=8
%mem=16000MB
#p B2PLYPD3/Def2QZVP 

methanol

0 1
C  -5.170822  -1.255103   0.911179
O  -3.771317  -1.120969   0.860914
H  -5.485976  -2.260158   0.565241
H  -5.706941  -0.461222   0.351491
H  -5.452517  -1.164786   1.949981
H  -3.532678  -1.204226  -0.024345
