%chk=/home/boittier/MDCM/nms_sampling/methanol_geom.xyz.dir/methanol_3158.chk
%nproc=8
%mem=16000MB
#p B2PLYPD3/Def2QZVP 

methanol

0 1
C  -5.190141  -1.270287   0.929477
O  -3.767527  -1.118341   0.871947
H  -5.572581  -2.221798   0.566990
H  -5.682421  -0.532793   0.314811
H  -5.295579  -1.053989   1.829810
H  -3.467298  -1.142650  -0.265649

