%chk=/home/boittier/MDCM/nms_sampling/methanol_geom.xyz.dir/methanol_209.chk
%nproc=8
%mem=16000MB
#p B2PLYPD3/Def2QZVP 

methanol

0 1
C  -5.169714  -1.253580   0.914747
O  -3.773361  -1.122191   0.851993
H  -5.513233  -2.272101   0.522603
H  -5.677556  -0.443345   0.361139
H  -5.465374  -1.164613   1.993944
H  -3.502556  -1.208673   0.067671

