%chk=/home/boittier/MDCM/nms_sampling/methanol_geom.xyz.dir/methanol_902.chk
%nproc=8
%mem=16000MB
#p B2PLYPD3/Def2QZVP 

methanol

0 1
C  -5.176156  -1.260384   0.918243
O  -3.772289  -1.122348   0.867739
H  -5.490731  -2.184614   0.560243
H  -5.648786  -0.472085   0.343733
H  -5.444599  -1.156550   1.904563
H  -3.512847  -1.195492  -0.162198

