%chk=/home/boittier/MDCM/nms_sampling/methanol_geom.xyz.dir/methanol_825.chk
%nproc=8
%mem=16000MB
#p B2PLYPD3/Def2QZVP 

methanol

0 1
C  -5.179421  -1.249764   0.907509
O  -3.763023  -1.123997   0.853467
H  -5.507804  -2.277171   0.531215
H  -5.707132  -0.474458   0.368078
H  -5.499209  -1.160487   2.028417
H  -3.496509  -1.194180   0.077575

