%chk=/home/boittier/MDCM/nms_sampling/methanol_geom.xyz.dir/methanol_2323.chk
%nproc=8
%mem=16000MB
#p B2PLYPD3/Def2QZVP 

methanol

0 1
C  -5.182757  -1.265149   0.917016
O  -3.758339  -1.118541   0.846813
H  -5.531960  -2.197206   0.518968
H  -5.677365  -0.407727   0.302828
H  -5.501617  -1.184310   2.051159
H  -3.527728  -1.228640   0.126516
