%chk=/home/boittier/MDCM/nms_sampling/methanol_geom.xyz.dir/methanol_3388.chk
%nproc=8
%mem=16000MB
#p B2PLYPD3/Def2QZVP 

methanol

0 1
C  -5.158729  -1.254688   0.900804
O  -3.764703  -1.114927   0.826441
H  -5.538011  -2.361669   0.495088
H  -5.756873  -0.394097   0.347645
H  -5.544371  -1.163906   2.204779
H  -3.587760  -1.272668   0.477273

