%chk=/home/boittier/MDCM/nms_sampling/methanol_geom.xyz.dir/methanol_590.chk
%nproc=8
%mem=16000MB
#p B2PLYPD3/Def2QZVP 

methanol

0 1
C  -5.182040  -1.255195   0.911265
O  -3.767067  -1.122380   0.859538
H  -5.507351  -2.262935   0.544924
H  -5.724760  -0.458151   0.367374
H  -5.418294  -1.165777   1.958323
H  -3.465062  -1.179515  -0.006902

