%chk=/home/boittier/MDCM/nms_sampling/methanol_geom.xyz.dir/methanol_652.chk
%nproc=8
%mem=16000MB
#p B2PLYPD3/Def2QZVP 

methanol

0 1
C  -5.188175  -1.259154   0.919379
O  -3.762843  -1.122338   0.848986
H  -5.511339  -2.242766   0.520144
H  -5.647210  -0.434751   0.319801
H  -5.450825  -1.154320   2.010864
H  -3.498956  -1.191567   0.087214
