%chk=/home/boittier/MDCM/nms_sampling/methanol_geom.xyz.dir/methanol_1587.chk
%nproc=8
%mem=16000MB
#p B2PLYPD3/Def2QZVP 

methanol

0 1
C  -5.171887  -1.248939   0.901913
O  -3.778085  -1.125355   0.846264
H  -5.450153  -2.323358   0.527889
H  -5.692519  -0.469556   0.362132
H  -5.434555  -1.114854   2.089709
H  -3.485812  -1.181609   0.208718
