%chk=/home/boittier/MDCM/nms_sampling/methanol_geom.xyz.dir/methanol_1136.chk
%nproc=8
%mem=16000MB
#p B2PLYPD3/Def2QZVP 

methanol

0 1
C  -5.176799  -1.250406   0.915938
O  -3.767284  -1.123121   0.864570
H  -5.538773  -2.233670   0.549716
H  -5.657931  -0.516763   0.367662
H  -5.490127  -1.150516   1.938033
H  -3.487918  -1.210535  -0.130260
