%chk=/home/boittier/MDCM/nms_sampling/methanol_geom.xyz.dir/methanol_550.chk
%nproc=8
%mem=16000MB
#p B2PLYPD3/Def2QZVP 

methanol

0 1
C  -5.170825  -1.255049   0.920900
O  -3.770609  -1.121645   0.852368
H  -5.545374  -2.249349   0.524547
H  -5.695703  -0.445507   0.320248
H  -5.466391  -1.179778   1.977493
H  -3.480609  -1.207302   0.043255
