%chk=/home/boittier/MDCM/nms_sampling/methanol_geom.xyz.dir/methanol_259.chk
%nproc=8
%mem=16000MB
#p B2PLYPD3/Def2QZVP 

methanol

0 1
C  -5.184535  -1.258679   0.914100
O  -3.767005  -1.121201   0.848110
H  -5.514970  -2.252451   0.543305
H  -5.660175  -0.418166   0.330634
H  -5.429869  -1.171625   2.026995
H  -3.480220  -1.203275   0.114732
