%chk=/home/boittier/MDCM/nms_sampling/methanol_geom.xyz.dir/methanol_250.chk
%nproc=8
%mem=16000MB
#p B2PLYPD3/Def2QZVP 

methanol

0 1
C  -5.167594  -1.255164   0.914032
O  -3.770780  -1.119798   0.865223
H  -5.548953  -2.224764   0.552589
H  -5.685528  -0.505537   0.372139
H  -5.474639  -1.155375   1.940028
H  -3.516534  -1.222778  -0.127707

