%chk=/home/boittier/MDCM/nms_sampling/methanol_geom.xyz.dir/methanol_1396.chk
%nproc=8
%mem=16000MB
#p B2PLYPD3/Def2QZVP 

methanol

0 1
C  -5.179195  -1.242237   0.909887
O  -3.762430  -1.126473   0.881015
H  -5.500323  -2.189949   0.553447
H  -5.705898  -0.560223   0.411349
H  -5.530552  -1.209474   1.871912
H  -3.484741  -1.195714  -0.309039
