%chk=/home/boittier/MDCM/nms_sampling/methanol_geom.xyz.dir/methanol_2886.chk
%nproc=8
%mem=16000MB
#p B2PLYPD3/Def2QZVP 

methanol

0 1
C  -5.206773  -1.270764   0.892353
O  -3.752291  -1.112982   0.877942
H  -5.472133  -2.082425   0.693741
H  -5.702286  -0.521782   0.290495
H  -5.388037  -1.179610   2.014499
H  -3.496753  -1.251757  -0.218966

