%chk=/home/boittier/MDCM/nms_sampling/methanol_geom.xyz.dir/methanol_3099.chk
%nproc=8
%mem=16000MB
#p B2PLYPD3/Def2QZVP 

methanol

0 1
C  -5.161514  -1.227326   0.904139
O  -3.788944  -1.130472   0.877791
H  -5.372169  -2.322671   0.590495
H  -5.703557  -0.583362   0.386606
H  -5.442328  -1.171633   1.870037
H  -3.498313  -1.177378  -0.196397

