%chk=/home/boittier/MDCM/nms_sampling/methanol_geom.xyz.dir/methanol_1229.chk
%nproc=8
%mem=16000MB
#p B2PLYPD3/Def2QZVP 

methanol

0 1
C  -5.174846  -1.254654   0.915987
O  -3.770209  -1.126909   0.877986
H  -5.589181  -2.127388   0.602014
H  -5.667182  -0.514539   0.363630
H  -5.491307  -1.187690   1.875430
H  -3.395517  -1.177976  -0.335668
