%chk=/home/boittier/MDCM/nms_sampling/methanol_geom.xyz.dir/methanol_1771.chk
%nproc=8
%mem=16000MB
#p B2PLYPD3/Def2QZVP 

methanol

0 1
C  -5.176700  -1.254402   0.915474
O  -3.769417  -1.124610   0.838992
H  -5.581716  -2.287549   0.494119
H  -5.706266  -0.416531   0.343318
H  -5.429131  -1.176994   2.080090
H  -3.421270  -1.161128   0.229899

