%chk=/home/boittier/MDCM/nms_sampling/methanol_geom.xyz.dir/methanol_2152.chk
%nproc=8
%mem=16000MB
#p B2PLYPD3/Def2QZVP 

methanol

0 1
C  -5.178323  -1.247206   0.922180
O  -3.764588  -1.126876   0.839227
H  -5.532860  -2.254590   0.500961
H  -5.643001  -0.409085   0.293428
H  -5.554307  -1.219661   2.062824
H  -3.462459  -1.211323   0.206087

