%chk=/home/boittier/MDCM/nms_sampling/methanol_geom.xyz.dir/methanol_1531.chk
%nproc=8
%mem=16000MB
#p B2PLYPD3/Def2QZVP 

methanol

0 1
C  -5.173219  -1.239700   0.911772
O  -3.777252  -1.125596   0.884672
H  -5.430111  -2.211613   0.582597
H  -5.690104  -0.588109   0.365373
H  -5.469557  -1.173374   1.837774
H  -3.471979  -1.219434  -0.340084

