%chk=/home/boittier/MDCM/nms_sampling/methanol_geom.xyz.dir/methanol_2613.chk
%nproc=8
%mem=16000MB
#p B2PLYPD3/Def2QZVP 

methanol

0 1
C  -5.173926  -1.253488   0.927218
O  -3.760841  -1.110961   0.874000
H  -5.601983  -2.205615   0.520404
H  -5.602442  -0.656835   0.357454
H  -5.484020  -1.101570   1.894504
H  -3.632562  -1.297528  -0.338103

