%chk=/home/boittier/MDCM/nms_sampling/methanol_geom.xyz.dir/methanol_2335.chk
%nproc=8
%mem=16000MB
#p B2PLYPD3/Def2QZVP 

methanol

0 1
C  -5.159936  -1.244943   0.914139
O  -3.775096  -1.124218   0.878572
H  -5.497508  -2.227302   0.541455
H  -5.742751  -0.557141   0.388220
H  -5.523821  -1.155347   1.854616
H  -3.484342  -1.217890  -0.266377
