%chk=/home/boittier/MDCM/nms_sampling/methanol_geom.xyz.dir/methanol_2046.chk
%nproc=8
%mem=16000MB
#p B2PLYPD3/Def2QZVP 

methanol

0 1
C  -5.185472  -1.260610   0.908994
O  -3.770200  -1.126786   0.847432
H  -5.447718  -2.289268   0.545645
H  -5.730551  -0.366517   0.335513
H  -5.421044  -1.134355   2.012306
H  -3.421693  -1.147017   0.195649
