%chk=/home/boittier/MDCM/nms_sampling/methanol_geom.xyz.dir/methanol_3053.chk
%nproc=8
%mem=16000MB
#p B2PLYPD3/Def2QZVP 

methanol

0 1
C  -5.145591  -1.254177   0.922081
O  -3.779123  -1.116212   0.885178
H  -5.621606  -2.138045   0.534755
H  -5.630486  -0.662422   0.397969
H  -5.462208  -1.146362   1.859164
H  -3.638010  -1.226623  -0.479582

