%chk=/home/boittier/MDCM/nms_sampling/methanol_geom.xyz.dir/methanol_2916.chk
%nproc=8
%mem=16000MB
#p B2PLYPD3/Def2QZVP 

methanol

0 1
C  -5.159788  -1.258358   0.911905
O  -3.774922  -1.116726   0.892063
H  -5.553310  -2.169896   0.578364
H  -5.842352  -0.598675   0.372411
H  -5.366677  -1.166382   1.802668
H  -3.490610  -1.181669  -0.430789

