%chk=/home/boittier/MDCM/nms_sampling/methanol_geom.xyz.dir/methanol_2762.chk
%nproc=8
%mem=16000MB
#p B2PLYPD3/Def2QZVP 

methanol

0 1
C  -5.193103  -1.260740   0.896040
O  -3.770401  -1.132155   0.897659
H  -5.457609  -2.063976   0.677767
H  -5.706552  -0.493448   0.417080
H  -5.415143  -1.188060   1.819547
H  -3.342116  -1.109268  -0.492893
