%chk=/home/boittier/MDCM/nms_sampling/methanol_geom.xyz.dir/methanol_2799.chk
%nproc=8
%mem=16000MB
#p B2PLYPD3/Def2QZVP 

methanol

0 1
C  -5.169551  -1.247455   0.909223
O  -3.778755  -1.118029   0.834470
H  -5.316965  -2.395102   0.518170
H  -5.749215  -0.405490   0.238509
H  -5.398328  -1.179562   2.096224
H  -3.616659  -1.237957   0.441403
