%chk=/home/boittier/MDCM/nms_sampling/methanol_geom.xyz.dir/methanol_2582.chk
%nproc=8
%mem=16000MB
#p B2PLYPD3/Def2QZVP 

methanol

0 1
C  -5.216326  -1.240080   0.898811
O  -3.751405  -1.124970   0.887483
H  -5.484698  -2.231552   0.599744
H  -5.683657  -0.650903   0.442464
H  -5.405802  -1.128933   1.889452
H  -3.402766  -1.183483  -0.378924
