%chk=/home/boittier/MDCM/nms_sampling/methanol_geom.xyz.dir/methanol_635.chk
%nproc=8
%mem=16000MB
#p B2PLYPD3/Def2QZVP 

methanol

0 1
C  -5.185366  -1.256268   0.916281
O  -3.764888  -1.125968   0.851833
H  -5.519838  -2.244302   0.554630
H  -5.663556  -0.436297   0.317488
H  -5.478174  -1.145173   1.999371
H  -3.446277  -1.176062   0.057535

