%chk=/home/boittier/MDCM/nms_sampling/methanol_geom.xyz.dir/methanol_2061.chk
%nproc=8
%mem=16000MB
#p B2PLYPD3/Def2QZVP 

methanol

0 1
C  -5.171790  -1.247101   0.929152
O  -3.778208  -1.123871   0.870617
H  -5.516294  -2.251160   0.516922
H  -5.636222  -0.547026   0.361720
H  -5.448411  -1.121193   1.835000
H  -3.463351  -1.213912  -0.241952
