%chk=/home/boittier/MDCM/nms_sampling/methanol_geom.xyz.dir/methanol_2047.chk
%nproc=8
%mem=16000MB
#p B2PLYPD3/Def2QZVP 

methanol

0 1
C  -5.187728  -1.253381   0.912159
O  -3.769597  -1.123597   0.842278
H  -5.523570  -2.292204   0.516648
H  -5.673045  -0.422660   0.347544
H  -5.406877  -1.160960   2.067359
H  -3.407054  -1.190876   0.202050

