%chk=/home/boittier/MDCM/nms_sampling/methanol_geom.xyz.dir/methanol_1006.chk
%nproc=8
%mem=16000MB
#p B2PLYPD3/Def2QZVP 

methanol

0 1
C  -5.175996  -1.262462   0.909429
O  -3.767198  -1.120597   0.868930
H  -5.519367  -2.188851   0.597336
H  -5.741066  -0.450183   0.346178
H  -5.449669  -1.177120   1.920458
H  -3.468639  -1.198369  -0.132226

