%chk=/home/boittier/MDCM/nms_sampling/methanol_geom.xyz.dir/methanol_2908.chk
%nproc=8
%mem=16000MB
#p B2PLYPD3/Def2QZVP 

methanol

0 1
C  -5.178282  -1.262158   0.892036
O  -3.770672  -1.130645   0.846217
H  -5.474629  -2.199506   0.609397
H  -5.793665  -0.350404   0.292018
H  -5.450822  -1.205447   2.139136
H  -3.368268  -1.110301   0.263708
