%chk=/home/boittier/MDCM/nms_sampling/methanol_geom.xyz.dir/methanol_1620.chk
%nproc=8
%mem=16000MB
#p B2PLYPD3/Def2QZVP 

methanol

0 1
C  -5.182345  -1.250983   0.918782
O  -3.774528  -1.129043   0.870030
H  -5.534746  -2.155967   0.564892
H  -5.556585  -0.524994   0.371116
H  -5.456610  -1.162838   1.920765
H  -3.442024  -1.168096  -0.255310

