%chk=/home/boittier/MDCM/nms_sampling/methanol_geom.xyz.dir/methanol_1441.chk
%nproc=8
%mem=16000MB
#p B2PLYPD3/Def2QZVP 

methanol

0 1
C  -5.170626  -1.246812   0.921394
O  -3.766848  -1.124650   0.842927
H  -5.511772  -2.347334   0.497459
H  -5.712225  -0.407262   0.338280
H  -5.510346  -1.184917   1.984955
H  -3.516974  -1.191047   0.196283
