%chk=/home/boittier/MDCM/nms_sampling/methanol_geom.xyz.dir/methanol_2340.chk
%nproc=8
%mem=16000MB
#p B2PLYPD3/Def2QZVP 

methanol

0 1
C  -5.189039  -1.245424   0.908139
O  -3.766400  -1.125160   0.871999
H  -5.474414  -2.204288   0.556206
H  -5.621352  -0.552164   0.400254
H  -5.484095  -1.158891   1.943610
H  -3.467921  -1.219488  -0.205424

