%chk=/home/boittier/MDCM/nms_sampling/methanol_geom.xyz.dir/methanol_2369.chk
%nproc=8
%mem=16000MB
#p B2PLYPD3/Def2QZVP 

methanol

0 1
C  -5.184611  -1.264065   0.907686
O  -3.764585  -1.120151   0.850959
H  -5.414225  -2.251964   0.554165
H  -5.705223  -0.395281   0.313517
H  -5.461479  -1.140734   2.024262
H  -3.539996  -1.213705   0.152542

