%chk=/home/boittier/MDCM/nms_sampling/methanol_geom.xyz.dir/methanol_1228.chk
%nproc=8
%mem=16000MB
#p B2PLYPD3/Def2QZVP 

methanol

0 1
C  -5.182712  -1.249584   0.929659
O  -3.766774  -1.124508   0.840601
H  -5.451846  -2.300914   0.503318
H  -5.630429  -0.377285   0.272841
H  -5.513269  -1.197061   1.978181
H  -3.513614  -1.225610   0.201616

