%chk=/home/boittier/MDCM/nms_sampling/methanol_geom.xyz.dir/methanol_1213.chk
%nproc=8
%mem=16000MB
#p B2PLYPD3/Def2QZVP 

methanol

0 1
C  -5.174775  -1.248383   0.918642
O  -3.767954  -1.128291   0.842719
H  -5.523870  -2.240758   0.525264
H  -5.633120  -0.412648   0.301880
H  -5.533884  -1.222829   2.056828
H  -3.487384  -1.182699   0.164435

