%chk=/home/boittier/MDCM/nms_sampling/methanol_geom.xyz.dir/methanol_3086.chk
%nproc=8
%mem=16000MB
#p B2PLYPD3/Def2QZVP 

methanol

0 1
C  -5.184351  -1.263360   0.919039
O  -3.746634  -1.108018   0.883467
H  -5.770622  -2.158993   0.609066
H  -5.716333  -0.600155   0.411529
H  -5.414793  -1.189588   1.837321
H  -3.516332  -1.249380  -0.476612
