%chk=/home/boittier/MDCM/nms_sampling/methanol_geom.xyz.dir/methanol_1490.chk
%nproc=8
%mem=16000MB
#p B2PLYPD3/Def2QZVP 

methanol

0 1
C  -5.176986  -1.241449   0.926545
O  -3.764428  -1.123674   0.845525
H  -5.533689  -2.332301   0.498072
H  -5.684323  -0.466029   0.307595
H  -5.509194  -1.189855   1.978756
H  -3.492838  -1.217756   0.127087
