%chk=/home/boittier/MDCM/nms_sampling/methanol_geom.xyz.dir/methanol_2942.chk
%nproc=8
%mem=16000MB
#p B2PLYPD3/Def2QZVP 

methanol

0 1
C  -5.154429  -1.257097   0.916952
O  -3.777356  -1.111923   0.824488
H  -5.616425  -2.399625   0.515790
H  -5.732020  -0.381722   0.309377
H  -5.380233  -1.179703   2.119103
H  -3.550954  -1.243397   0.425507

