%chk=/home/boittier/MDCM/nms_sampling/methanol_geom.xyz.dir/methanol_2272.chk
%nproc=8
%mem=16000MB
#p B2PLYPD3/Def2QZVP 

methanol

0 1
C  -5.179534  -1.256187   0.926061
O  -3.767258  -1.115403   0.844601
H  -5.511601  -2.307613   0.475622
H  -5.649061  -0.458186   0.322778
H  -5.428449  -1.140135   1.997805
H  -3.558450  -1.254784   0.135115
