%chk=/home/boittier/MDCM/nms_sampling/methanol_geom.xyz.dir/methanol_82.chk
%nproc=8
%mem=16000MB
#p B2PLYPD3/Def2QZVP 

methanol

0 1
C  -5.177238  -1.254982   0.920020
O  -3.762329  -1.118254   0.869713
H  -5.561652  -2.222945   0.560780
H  -5.683850  -0.500629   0.371201
H  -5.475282  -1.181547   1.872101
H  -3.526433  -1.230158  -0.209072
