%chk=/home/boittier/MDCM/nms_sampling/methanol_geom.xyz.dir/methanol_2603.chk
%nproc=8
%mem=16000MB
#p B2PLYPD3/Def2QZVP 

methanol

0 1
C  -5.201835  -1.263464   0.930888
O  -3.772562  -1.130555   0.885038
H  -5.531354  -2.134286   0.629305
H  -5.549233  -0.455225   0.374558
H  -5.412586  -1.099522   1.708695
H  -3.298882  -1.155978  -0.491178

