%chk=/home/boittier/MDCM/nms_sampling/methanol_geom.xyz.dir/methanol_2977.chk
%nproc=8
%mem=16000MB
#p B2PLYPD3/Def2QZVP 

methanol

0 1
C  -5.189958  -1.269258   0.933501
O  -3.745142  -1.117352   0.885159
H  -5.651382  -2.110788   0.666712
H  -5.671731  -0.469009   0.299749
H  -5.497886  -1.218084   1.717493
H  -3.539046  -1.195887  -0.497468
