%chk=/home/boittier/MDCM/nms_sampling/methanol_geom.xyz.dir/methanol_553.chk
%nproc=8
%mem=16000MB
#p B2PLYPD3/Def2QZVP 

methanol

0 1
C  -5.183314  -1.247378   0.919307
O  -3.765188  -1.123607   0.867476
H  -5.523800  -2.216302   0.524863
H  -5.631782  -0.541627   0.373865
H  -5.473107  -1.174614   1.921010
H  -3.503678  -1.204763  -0.182908

