%chk=/home/boittier/MDCM/nms_sampling/methanol_geom.xyz.dir/methanol_1243.chk
%nproc=8
%mem=16000MB
#p B2PLYPD3/Def2QZVP 

methanol

0 1
C  -5.180138  -1.266851   0.907821
O  -3.769043  -1.119096   0.845380
H  -5.499258  -2.219584   0.520908
H  -5.741175  -0.402612   0.308756
H  -5.380631  -1.180335   2.092857
H  -3.479831  -1.181908   0.208220

