%chk=/home/boittier/MDCM/nms_sampling/methanol_geom.xyz.dir/methanol_3121.chk
%nproc=8
%mem=16000MB
#p B2PLYPD3/Def2QZVP 

methanol

0 1
C  -5.189655  -1.252965   0.931404
O  -3.756003  -1.114522   0.823248
H  -5.470812  -2.444913   0.463159
H  -5.710618  -0.388314   0.235703
H  -5.415251  -1.145710   2.052725
H  -3.613856  -1.232626   0.466999

