%chk=/home/boittier/MDCM/nms_sampling/methanol_geom.xyz.dir/methanol_1465.chk
%nproc=8
%mem=16000MB
#p B2PLYPD3/Def2QZVP 

methanol

0 1
C  -5.187417  -1.252168   0.910216
O  -3.767822  -1.125995   0.871743
H  -5.512116  -2.184664   0.549622
H  -5.680491  -0.539807   0.378485
H  -5.411917  -1.164158   1.942152
H  -3.435862  -1.155712  -0.196877
