%chk=/home/boittier/MDCM/nms_sampling/methanol_geom.xyz.dir/methanol_1616.chk
%nproc=8
%mem=16000MB
#p B2PLYPD3/Def2QZVP 

methanol

0 1
C  -5.187045  -1.255150   0.906913
O  -3.764547  -1.118143   0.875246
H  -5.457373  -2.165166   0.584319
H  -5.667152  -0.545395   0.349139
H  -5.435254  -1.181397   1.941566
H  -3.538700  -1.240214  -0.220686

