%chk=/home/boittier/MDCM/nms_sampling/methanol_geom.xyz.dir/methanol_3556.chk
%nproc=8
%mem=16000MB
#p B2PLYPD3/Def2QZVP 

methanol

0 1
C  -5.203507  -1.232995   0.902627
O  -3.759912  -1.124165   0.840320
H  -5.389674  -2.441570   0.488166
H  -5.710573  -0.439835   0.408106
H  -5.437413  -1.179630   2.060160
H  -3.453842  -1.226604   0.325108
