%chk=/home/boittier/MDCM/nms_sampling/methanol_geom.xyz.dir/methanol_1646.chk
%nproc=8
%mem=16000MB
#p B2PLYPD3/Def2QZVP 

methanol

0 1
C  -5.170008  -1.257471   0.908326
O  -3.774776  -1.117298   0.851017
H  -5.426117  -2.301993   0.522770
H  -5.717612  -0.407414   0.364764
H  -5.435939  -1.162751   1.999725
H  -3.554985  -1.245590   0.150801

