%chk=/home/boittier/MDCM/nms_sampling/methanol_geom.xyz.dir/methanol_1193.chk
%nproc=8
%mem=16000MB
#p B2PLYPD3/Def2QZVP 

methanol

0 1
C  -5.173934  -1.255363   0.918522
O  -3.772109  -1.120781   0.865741
H  -5.512979  -2.237949   0.563059
H  -5.669541  -0.485555   0.350962
H  -5.423481  -1.166315   1.898559
H  -3.523953  -1.199037  -0.135433
