%chk=/home/boittier/MDCM/nms_sampling/methanol_geom.xyz.dir/methanol_151.chk
%nproc=8
%mem=16000MB
#p B2PLYPD3/Def2QZVP 

methanol

0 1
C  -5.178432  -1.257893   0.910035
O  -3.769426  -1.120311   0.870705
H  -5.495302  -2.165172   0.594383
H  -5.669622  -0.513005   0.329097
H  -5.445332  -1.172246   1.948318
H  -3.507917  -1.218537  -0.179404
