%chk=/home/boittier/MDCM/nms_sampling/methanol_geom.xyz.dir/methanol_1018.chk
%nproc=8
%mem=16000MB
#p B2PLYPD3/Def2QZVP 

methanol

0 1
C  -5.180487  -1.251746   0.910393
O  -3.771313  -1.126266   0.853399
H  -5.446706  -2.263907   0.551008
H  -5.693152  -0.429411   0.327671
H  -5.459097  -1.172287   2.001214
H  -3.464536  -1.181418   0.093261

