%chk=/home/boittier/MDCM/nms_sampling/methanol_geom.xyz.dir/methanol_1681.chk
%nproc=8
%mem=16000MB
#p B2PLYPD3/Def2QZVP 

methanol

0 1
C  -5.178531  -1.246030   0.922105
O  -3.764759  -1.126074   0.861526
H  -5.534139  -2.239989   0.543618
H  -5.635891  -0.452225   0.371798
H  -5.543161  -1.212483   1.897772
H  -3.476461  -1.214402  -0.108123
