%chk=/home/boittier/MDCM/nms_sampling/methanol_geom.xyz.dir/methanol_2549.chk
%nproc=8
%mem=16000MB
#p B2PLYPD3/Def2QZVP 

methanol

0 1
C  -5.151904  -1.250693   0.905705
O  -3.790707  -1.117160   0.891137
H  -5.507541  -2.138928   0.581324
H  -5.627526  -0.700896   0.401264
H  -5.405442  -1.097469   1.903604
H  -3.561268  -1.255286  -0.479599
