%chk=/home/boittier/MDCM/nms_sampling/methanol_geom.xyz.dir/methanol_2344.chk
%nproc=8
%mem=16000MB
#p B2PLYPD3/Def2QZVP 

methanol

0 1
C  -5.181569  -1.260051   0.904793
O  -3.762096  -1.120522   0.844991
H  -5.457632  -2.248570   0.540019
H  -5.686514  -0.380706   0.341177
H  -5.527570  -1.172486   2.080018
H  -3.523104  -1.243001   0.214554
