%chk=/home/boittier/MDCM/nms_sampling/methanol_geom.xyz.dir/methanol_1949.chk
%nproc=8
%mem=16000MB
#p B2PLYPD3/Def2QZVP 

methanol

0 1
C  -5.185567  -1.264046   0.926635
O  -3.766187  -1.119359   0.872811
H  -5.564524  -2.207890   0.540051
H  -5.659417  -0.497432   0.383761
H  -5.385985  -1.120855   1.821526
H  -3.479111  -1.184117  -0.278139

