%chk=/home/boittier/MDCM/nms_sampling/methanol_geom.xyz.dir/methanol_929.chk
%nproc=8
%mem=16000MB
#p B2PLYPD3/Def2QZVP 

methanol

0 1
C  -5.182239  -1.262136   0.913328
O  -3.767663  -1.118973   0.865551
H  -5.541417  -2.195824   0.553029
H  -5.671389  -0.495677   0.369430
H  -5.408333  -1.142092   1.950533
H  -3.482617  -1.205575  -0.133777
