%chk=/home/boittier/MDCM/nms_sampling/methanol_geom.xyz.dir/methanol_3166.chk
%nproc=8
%mem=16000MB
#p B2PLYPD3/Def2QZVP 

methanol

0 1
C  -5.183845  -1.240517   0.922023
O  -3.778355  -1.128756   0.820253
H  -5.442528  -2.371280   0.423090
H  -5.555470  -0.420948   0.305781
H  -5.488189  -1.113791   2.172684
H  -3.435753  -1.226140   0.472302

