%chk=/home/boittier/MDCM/nms_sampling/methanol_geom.xyz.dir/methanol_1678.chk
%nproc=8
%mem=16000MB
#p B2PLYPD3/Def2QZVP 

methanol

0 1
C  -5.166160  -1.253167   0.922618
O  -3.774881  -1.118348   0.876335
H  -5.549675  -2.197852   0.543428
H  -5.638860  -0.581498   0.371481
H  -5.448724  -1.134626   1.860186
H  -3.544198  -1.236684  -0.321717
