%chk=/home/boittier/MDCM/nms_sampling/methanol_geom.xyz.dir/methanol_683.chk
%nproc=8
%mem=16000MB
#p B2PLYPD3/Def2QZVP 

methanol

0 1
C  -5.175726  -1.252561   0.919349
O  -3.773345  -1.124245   0.864007
H  -5.482614  -2.220929   0.534623
H  -5.649473  -0.478540   0.351763
H  -5.473878  -1.160083   1.916523
H  -3.482282  -1.209011  -0.108567
