%chk=/home/boittier/MDCM/nms_sampling/methanol_geom.xyz.dir/methanol_2414.chk
%nproc=8
%mem=16000MB
#p B2PLYPD3/Def2QZVP 

methanol

0 1
C  -5.166213  -1.242926   0.898365
O  -3.774822  -1.128967   0.832383
H  -5.416594  -2.424503   0.460323
H  -5.818396  -0.344487   0.411825
H  -5.493523  -1.175993   2.108906
H  -3.448359  -1.161045   0.480403

