%chk=/home/boittier/MDCM/nms_sampling/methanol_geom.xyz.dir/methanol_2614.chk
%nproc=8
%mem=16000MB
#p B2PLYPD3/Def2QZVP 

methanol

0 1
C  -5.179141  -1.236508   0.925191
O  -3.758165  -1.128873   0.836190
H  -5.545310  -2.374757   0.413597
H  -5.670556  -0.476404   0.368445
H  -5.580214  -1.149104   2.047855
H  -3.498860  -1.183340   0.248918

