%chk=/home/boittier/MDCM/nms_sampling/methanol_geom.xyz.dir/methanol_1191.chk
%nproc=8
%mem=16000MB
#p B2PLYPD3/Def2QZVP 

methanol

0 1
C  -5.178945  -1.253750   0.914777
O  -3.771711  -1.123997   0.853414
H  -5.532250  -2.253858   0.519224
H  -5.657637  -0.466987   0.368192
H  -5.445634  -1.142723   2.002768
H  -3.443094  -1.194070   0.030560
