%chk=/home/boittier/MDCM/nms_sampling/methanol_geom.xyz.dir/methanol_1308.chk
%nproc=8
%mem=16000MB
#p B2PLYPD3/Def2QZVP 

methanol

0 1
C  -5.175169  -1.246998   0.905129
O  -3.763112  -1.124278   0.880009
H  -5.494427  -2.152204   0.588774
H  -5.692912  -0.565446   0.372306
H  -5.568506  -1.186638   1.925031
H  -3.500879  -1.232625  -0.288353

