%chk=/home/boittier/MDCM/nms_sampling/methanol_geom.xyz.dir/methanol_52.chk
%nproc=8
%mem=16000MB
#p B2PLYPD3/Def2QZVP 

methanol

0 1
C  -5.187915  -1.263165   0.917130
O  -3.762362  -1.120708   0.863469
H  -5.538745  -2.177952   0.549422
H  -5.647414  -0.482313   0.346326
H  -5.436512  -1.149253   1.954079
H  -3.495801  -1.193245  -0.122142
