%chk=/home/boittier/MDCM/nms_sampling/methanol_geom.xyz.dir/methanol_232.chk
%nproc=8
%mem=16000MB
#p B2PLYPD3/Def2QZVP 

methanol

0 1
C  -5.182473  -1.263678   0.920402
O  -3.769414  -1.120535   0.849211
H  -5.504630  -2.258563   0.538946
H  -5.671813  -0.391122   0.317407
H  -5.422563  -1.144208   1.972698
H  -3.471432  -1.204601   0.095956

