%chk=/home/boittier/MDCM/nms_sampling/methanol_geom.xyz.dir/methanol_1015.chk
%nproc=8
%mem=16000MB
#p B2PLYPD3/Def2QZVP 

methanol

0 1
C  -5.180728  -1.257362   0.912112
O  -3.764362  -1.120605   0.856291
H  -5.483484  -2.263772   0.530340
H  -5.712154  -0.434252   0.364676
H  -5.472702  -1.156998   1.970109
H  -3.504522  -1.216036   0.041578
