%chk=/home/boittier/MDCM/nms_sampling/methanol_geom.xyz.dir/methanol_2554.chk
%nproc=8
%mem=16000MB
#p B2PLYPD3/Def2QZVP 

methanol

0 1
C  -5.162459  -1.248687   0.920794
O  -3.765357  -1.115210   0.888473
H  -5.590828  -2.178098   0.559859
H  -5.669960  -0.542506   0.464386
H  -5.519397  -1.257564   1.749226
H  -3.590713  -1.277395  -0.491153

