%chk=/home/boittier/MDCM/nms_sampling/methanol_geom.xyz.dir/methanol_504.chk
%nproc=8
%mem=16000MB
#p B2PLYPD3/Def2QZVP 

methanol

0 1
C  -5.180553  -1.246487   0.913503
O  -3.767460  -1.124426   0.865721
H  -5.483805  -2.262748   0.563398
H  -5.675616  -0.510016   0.359995
H  -5.469831  -1.165160   1.921919
H  -3.499634  -1.196941  -0.109154

