%chk=/home/boittier/MDCM/nms_sampling/methanol_geom.xyz.dir/methanol_260.chk
%nproc=8
%mem=16000MB
#p B2PLYPD3/Def2QZVP 

methanol

0 1
C  -5.186918  -1.254450   0.918806
O  -3.766559  -1.124094   0.850071
H  -5.511616  -2.270707   0.541751
H  -5.666882  -0.417383   0.326537
H  -5.442484  -1.171542   1.979248
H  -3.444058  -1.189837   0.082038

