%chk=/home/boittier/MDCM/nms_sampling/methanol_geom.xyz.dir/methanol_3065.chk
%nproc=8
%mem=16000MB
#p B2PLYPD3/Def2QZVP 

methanol

0 1
C  -5.172767  -1.239037   0.919693
O  -3.760311  -1.125635   0.887514
H  -5.673479  -2.148988   0.512268
H  -5.580473  -0.652419   0.513909
H  -5.594128  -1.180599   1.831687
H  -3.485821  -1.223681  -0.551605

