%chk=/home/boittier/MDCM/nms_sampling/methanol_geom.xyz.dir/methanol_2469.chk
%nproc=8
%mem=16000MB
#p B2PLYPD3/Def2QZVP 

methanol

0 1
C  -5.211618  -1.242384   0.916791
O  -3.754357  -1.125744   0.831766
H  -5.548040  -2.343389   0.505015
H  -5.599510  -0.478270   0.309672
H  -5.418543  -1.155160   2.137943
H  -3.414120  -1.181542   0.295678
