%chk=/home/boittier/MDCM/nms_sampling/methanol_geom.xyz.dir/methanol_3067.chk
%nproc=8
%mem=16000MB
#p B2PLYPD3/Def2QZVP 

methanol

0 1
C  -5.173108  -1.255005   0.926897
O  -3.787186  -1.129376   0.836616
H  -5.409531  -2.264906   0.471717
H  -5.563428  -0.382181   0.279846
H  -5.439659  -1.135604   2.047031
H  -3.482539  -1.175753   0.251873
