%chk=/home/boittier/MDCM/nms_sampling/methanol_geom.xyz.dir/methanol_1752.chk
%nproc=8
%mem=16000MB
#p B2PLYPD3/Def2QZVP 

methanol

0 1
C  -5.192376  -1.269250   0.918378
O  -3.762350  -1.119751   0.876856
H  -5.526559  -2.101175   0.574258
H  -5.616767  -0.516995   0.346988
H  -5.419706  -1.133056   1.891919
H  -3.501971  -1.196331  -0.319763
