%chk=/home/boittier/MDCM/nms_sampling/methanol_geom.xyz.dir/methanol_191.chk
%nproc=8
%mem=16000MB
#p B2PLYPD3/Def2QZVP 

methanol

0 1
C  -5.181416  -1.259970   0.920803
O  -3.761842  -1.120127   0.852938
H  -5.530451  -2.229243   0.532593
H  -5.694096  -0.412677   0.317617
H  -5.479731  -1.192606   1.966398
H  -3.496598  -1.216472   0.041422

