%chk=/home/boittier/MDCM/nms_sampling/methanol_geom.xyz.dir/methanol_3330.chk
%nproc=8
%mem=16000MB
#p B2PLYPD3/Def2QZVP 

methanol

0 1
C  -5.173211  -1.244208   0.918689
O  -3.760195  -1.113748   0.873425
H  -5.609164  -2.172585   0.510368
H  -5.611254  -0.627901   0.406506
H  -5.501253  -1.235158   1.938599
H  -3.612108  -1.291120  -0.311465
