%chk=/home/boittier/MDCM/nms_sampling/methanol_geom.xyz.dir/methanol_1942.chk
%nproc=8
%mem=16000MB
#p B2PLYPD3/Def2QZVP 

methanol

0 1
C  -5.163662  -1.259277   0.924427
O  -3.774689  -1.119697   0.866257
H  -5.560510  -2.200733   0.563398
H  -5.653590  -0.430479   0.365306
H  -5.472340  -1.206061   1.855312
H  -3.516626  -1.227273  -0.182757
