%chk=/home/boittier/MDCM/nms_sampling/methanol_geom.xyz.dir/methanol_77.chk
%nproc=8
%mem=16000MB
#p B2PLYPD3/Def2QZVP 

methanol

0 1
C  -5.189845  -1.252879   0.911007
O  -3.761435  -1.123144   0.855132
H  -5.485479  -2.281975   0.538368
H  -5.726794  -0.455625   0.346394
H  -5.439326  -1.160970   1.987551
H  -3.463307  -1.183173   0.065558
