%chk=/home/boittier/MDCM/nms_sampling/methanol_geom.xyz.dir/methanol_869.chk
%nproc=8
%mem=16000MB
#p B2PLYPD3/Def2QZVP 

methanol

0 1
C  -5.183225  -1.262943   0.919725
O  -3.764955  -1.120459   0.869849
H  -5.534475  -2.178860   0.576452
H  -5.651904  -0.468808   0.352983
H  -5.458073  -1.150818   1.878813
H  -3.487204  -1.211576  -0.212497

