%chk=/home/boittier/MDCM/nms_sampling/methanol_geom.xyz.dir/methanol_154.chk
%nproc=8
%mem=16000MB
#p B2PLYPD3/Def2QZVP 

methanol

0 1
C  -5.186684  -1.256349   0.908059
O  -3.763904  -1.121931   0.870967
H  -5.510981  -2.187442   0.546969
H  -5.701211  -0.523996   0.387818
H  -5.447612  -1.147666   1.948966
H  -3.452417  -1.201727  -0.171866
