%chk=/home/boittier/MDCM/nms_sampling/methanol_geom.xyz.dir/methanol_2182.chk
%nproc=8
%mem=16000MB
#p B2PLYPD3/Def2QZVP 

methanol

0 1
C  -5.193431  -1.249315   0.915215
O  -3.761529  -1.126009   0.876872
H  -5.535384  -2.210845   0.559199
H  -5.678194  -0.533182   0.409751
H  -5.424698  -1.177174   1.855520
H  -3.432923  -1.156168  -0.289823

