%chk=/home/boittier/MDCM/nms_sampling/methanol_geom.xyz.dir/methanol_1682.chk
%nproc=8
%mem=16000MB
#p B2PLYPD3/Def2QZVP 

methanol

0 1
C  -5.182610  -1.251369   0.918604
O  -3.765529  -1.124456   0.853651
H  -5.555562  -2.294700   0.529191
H  -5.735105  -0.436309   0.355295
H  -5.445889  -1.170026   1.946836
H  -3.397350  -1.178463   0.043298
