%chk=/home/boittier/MDCM/nms_sampling/methanol_geom.xyz.dir/methanol_468.chk
%nproc=8
%mem=16000MB
#p B2PLYPD3/Def2QZVP 

methanol

0 1
C  -5.184779  -1.257768   0.918191
O  -3.762342  -1.125503   0.865297
H  -5.559994  -2.168989   0.551640
H  -5.664111  -0.486318   0.345169
H  -5.482364  -1.167642   1.940395
H  -3.446466  -1.170164  -0.151880

