%chk=/home/boittier/MDCM/nms_sampling/methanol_geom.xyz.dir/methanol_2246.chk
%nproc=8
%mem=16000MB
#p B2PLYPD3/Def2QZVP 

methanol

0 1
C  -5.181401  -1.248252   0.916303
O  -3.761213  -1.118391   0.877183
H  -5.573628  -2.199475   0.582390
H  -5.627612  -0.604479   0.377368
H  -5.456448  -1.176366   1.889973
H  -3.563410  -1.227381  -0.335769
