%chk=/home/boittier/MDCM/nms_sampling/methanol_geom.xyz.dir/methanol_2937.chk
%nproc=8
%mem=16000MB
#p B2PLYPD3/Def2QZVP 

methanol

0 1
C  -5.173540  -1.269063   0.917201
O  -3.766063  -1.112759   0.824634
H  -5.676907  -2.278327   0.490461
H  -5.686396  -0.329049   0.346319
H  -5.388166  -1.219905   2.149827
H  -3.474854  -1.231010   0.376118

