%chk=/home/boittier/MDCM/nms_sampling/methanol_geom.xyz.dir/methanol_282.chk
%nproc=8
%mem=16000MB
#p B2PLYPD3/Def2QZVP 

methanol

0 1
C  -5.178610  -1.252211   0.909069
O  -3.763557  -1.125294   0.867806
H  -5.521632  -2.192095   0.589323
H  -5.677204  -0.494663   0.356901
H  -5.519364  -1.182132   1.951705
H  -3.488604  -1.191883  -0.145011

