%chk=/home/boittier/MDCM/nms_sampling/methanol_geom.xyz.dir/methanol_2564.chk
%nproc=8
%mem=16000MB
#p B2PLYPD3/Def2QZVP 

methanol

0 1
C  -5.159220  -1.249138   0.910215
O  -3.784878  -1.119876   0.849981
H  -5.346432  -2.388650   0.487205
H  -5.744402  -0.469437   0.343962
H  -5.397782  -1.102535   1.992453
H  -3.618571  -1.207552   0.208027
