%chk=/home/boittier/MDCM/nms_sampling/methanol_geom.xyz.dir/methanol_509.chk
%nproc=8
%mem=16000MB
#p B2PLYPD3/Def2QZVP 

methanol

0 1
C  -5.185128  -1.252251   0.916791
O  -3.761742  -1.121467   0.867192
H  -5.567445  -2.203383   0.545878
H  -5.651653  -0.520257   0.381813
H  -5.465667  -1.181663   1.928344
H  -3.479851  -1.210569  -0.184031

