%chk=/home/boittier/MDCM/nms_sampling/methanol_geom.xyz.dir/methanol_2921.chk
%nproc=8
%mem=16000MB
#p B2PLYPD3/Def2QZVP 

methanol

0 1
C  -5.173979  -1.276326   0.933372
O  -3.768115  -1.117157   0.833753
H  -5.531792  -2.260851   0.472043
H  -5.737900  -0.283540   0.256235
H  -5.389308  -1.189333   1.994110
H  -3.522396  -1.174995   0.301464

