%chk=/home/boittier/MDCM/nms_sampling/methanol_geom.xyz.dir/methanol_3596.chk
%nproc=8
%mem=16000MB
#p B2PLYPD3/Def2QZVP 

methanol

0 1
C  -5.179739  -1.278383   0.904287
O  -3.758438  -1.115904   0.882094
H  -5.498954  -2.104745   0.584902
H  -5.860249  -0.416611   0.374157
H  -5.472634  -1.165940   1.861630
H  -3.437028  -1.221631  -0.243761
