%chk=/home/boittier/MDCM/nms_sampling/methanol_geom.xyz.dir/methanol_1696.chk
%nproc=8
%mem=16000MB
#p B2PLYPD3/Def2QZVP 

methanol

0 1
C  -5.188233  -1.252701   0.905738
O  -3.770955  -1.123898   0.872171
H  -5.515050  -2.194764   0.545613
H  -5.663222  -0.553281   0.417902
H  -5.395274  -1.134404   1.958438
H  -3.411953  -1.185591  -0.202285

