%chk=/home/boittier/MDCM/nms_sampling/methanol_geom.xyz.dir/methanol_609.chk
%nproc=8
%mem=16000MB
#p B2PLYPD3/Def2QZVP 

methanol

0 1
C  -5.179694  -1.248399   0.910370
O  -3.767678  -1.123646   0.872056
H  -5.473942  -2.235145   0.569284
H  -5.683207  -0.521279   0.381537
H  -5.490486  -1.152260   1.902041
H  -3.487887  -1.216966  -0.183295

