%chk=/home/boittier/MDCM/nms_sampling/methanol_geom.xyz.dir/methanol_316.chk
%nproc=8
%mem=16000MB
#p B2PLYPD3/Def2QZVP 

methanol

0 1
C  -5.183592  -1.257042   0.916478
O  -3.768400  -1.123993   0.847213
H  -5.526904  -2.256838   0.558507
H  -5.657610  -0.425951   0.301729
H  -5.428090  -1.162999   2.025893
H  -3.460829  -1.175689   0.115854
