%chk=/home/boittier/MDCM/nms_sampling/methanol_geom.xyz.dir/methanol_958.chk
%nproc=8
%mem=16000MB
#p B2PLYPD3/Def2QZVP 

methanol

0 1
C  -5.179360  -1.254883   0.917398
O  -3.763889  -1.123402   0.867913
H  -5.555083  -2.174146   0.566802
H  -5.637382  -0.505117   0.354854
H  -5.518987  -1.165516   1.927178
H  -3.482575  -1.214088  -0.196258

