%chk=/home/boittier/MDCM/nms_sampling/methanol_geom.xyz.dir/methanol_2062.chk
%nproc=8
%mem=16000MB
#p B2PLYPD3/Def2QZVP 

methanol

0 1
C  -5.194338  -1.262154   0.925205
O  -3.757338  -1.117921   0.870508
H  -5.548229  -2.195556   0.550762
H  -5.653843  -0.511867   0.343314
H  -5.440404  -1.124319   1.863666
H  -3.486010  -1.224830  -0.238500

