%chk=/home/boittier/MDCM/nms_sampling/methanol_geom.xyz.dir/methanol_2765.chk
%nproc=8
%mem=16000MB
#p B2PLYPD3/Def2QZVP 

methanol

0 1
C  -5.159645  -1.282251   0.926314
O  -3.769616  -1.119534   0.877799
H  -5.624543  -2.085809   0.610636
H  -5.739635  -0.436196   0.301357
H  -5.470797  -1.125137   1.814010
H  -3.486340  -1.162718  -0.338343
