%chk=/home/boittier/MDCM/nms_sampling/methanol_geom.xyz.dir/methanol_2178.chk
%nproc=8
%mem=16000MB
#p B2PLYPD3/Def2QZVP 

methanol

0 1
C  -5.182901  -1.257778   0.899936
O  -3.761623  -1.116831   0.874537
H  -5.494026  -2.177465   0.565032
H  -5.684435  -0.538399   0.423091
H  -5.464040  -1.162757   1.965947
H  -3.550893  -1.244906  -0.204525

