%chk=/home/boittier/MDCM/nms_sampling/methanol_geom.xyz.dir/methanol_585.chk
%nproc=8
%mem=16000MB
#p B2PLYPD3/Def2QZVP 

methanol

0 1
C  -5.174421  -1.259086   0.912497
O  -3.771671  -1.121787   0.852306
H  -5.466614  -2.251728   0.559340
H  -5.703785  -0.421334   0.302698
H  -5.444638  -1.162647   2.003679
H  -3.512713  -1.197051   0.099962

