%chk=/home/boittier/MDCM/nms_sampling/methanol_geom.xyz.dir/methanol_2025.chk
%nproc=8
%mem=16000MB
#p B2PLYPD3/Def2QZVP 

methanol

0 1
C  -5.168373  -1.265277   0.903348
O  -3.768824  -1.118180   0.864974
H  -5.564994  -2.209884   0.557107
H  -5.774743  -0.482832   0.391453
H  -5.430462  -1.131719   1.987490
H  -3.475426  -1.193548  -0.069671
