%chk=/home/boittier/MDCM/nms_sampling/methanol_geom.xyz.dir/methanol_2402.chk
%nproc=8
%mem=16000MB
#p B2PLYPD3/Def2QZVP 

methanol

0 1
C  -5.198249  -1.245952   0.903466
O  -3.752503  -1.132211   0.898078
H  -5.512464  -2.015847   0.592528
H  -5.658549  -0.616261   0.412637
H  -5.540931  -1.254209   1.874730
H  -3.435368  -1.141512  -0.560278
