%chk=/home/boittier/MDCM/nms_sampling/methanol_geom.xyz.dir/methanol_3547.chk
%nproc=8
%mem=16000MB
#p B2PLYPD3/Def2QZVP 

methanol

0 1
C  -5.194448  -1.263616   0.925304
O  -3.742758  -1.110152   0.888797
H  -5.707079  -2.159611   0.551749
H  -5.721315  -0.534581   0.476776
H  -5.436750  -1.217975   1.729575
H  -3.493235  -1.250494  -0.533634

