%chk=/home/boittier/MDCM/nms_sampling/methanol_geom.xyz.dir/methanol_3087.chk
%nproc=8
%mem=16000MB
#p B2PLYPD3/Def2QZVP 

methanol

0 1
C  -5.170791  -1.243649   0.919059
O  -3.789146  -1.133935   0.825745
H  -5.418339  -2.325030   0.533538
H  -5.545204  -0.401349   0.225383
H  -5.506762  -1.104689   2.152487
H  -3.425263  -1.188369   0.408044

