%chk=/home/boittier/MDCM/nms_sampling/methanol_geom.xyz.dir/methanol_2453.chk
%nproc=8
%mem=16000MB
#p B2PLYPD3/Def2QZVP 

methanol

0 1
C  -5.167042  -1.242661   0.901941
O  -3.783507  -1.126566   0.844193
H  -5.339193  -2.400252   0.488746
H  -5.691317  -0.407216   0.416395
H  -5.459040  -1.133939   2.035333
H  -3.544443  -1.199487   0.286281
