%chk=/home/boittier/MDCM/nms_sampling/methanol_geom.xyz.dir/methanol_47.chk
%nproc=8
%mem=16000MB
#p B2PLYPD3/Def2QZVP 

methanol

0 1
C  -5.191374  -1.256736   0.916003
O  -3.761178  -1.125060   0.866179
H  -5.506558  -2.205716   0.563083
H  -5.666281  -0.467398   0.357362
H  -5.476308  -1.152682   1.913577
H  -3.447831  -1.184472  -0.134912

