%chk=/home/boittier/MDCM/nms_sampling/methanol_geom.xyz.dir/methanol_2898.chk
%nproc=8
%mem=16000MB
#p B2PLYPD3/Def2QZVP 

methanol

0 1
C  -5.164727  -1.252488   0.911205
O  -3.762377  -1.115239   0.886480
H  -5.636599  -2.128645   0.570493
H  -5.598595  -0.615180   0.477056
H  -5.484368  -1.234165   1.870624
H  -3.671228  -1.232566  -0.495182

