%chk=/home/boittier/MDCM/nms_sampling/methanol_geom.xyz.dir/methanol_498.chk
%nproc=8
%mem=16000MB
#p B2PLYPD3/Def2QZVP 

methanol

0 1
C  -5.186842  -1.250135   0.919665
O  -3.765885  -1.125691   0.870970
H  -5.497636  -2.195013   0.559238
H  -5.637850  -0.511142   0.350546
H  -5.467530  -1.180212   1.885040
H  -3.473559  -1.188184  -0.218130
