%chk=/home/boittier/MDCM/nms_sampling/methanol_geom.xyz.dir/methanol_2812.chk
%nproc=8
%mem=16000MB
#p B2PLYPD3/Def2QZVP 

methanol

0 1
C  -5.215637  -1.259834   0.938784
O  -3.749767  -1.123593   0.888695
H  -5.533737  -2.135945   0.593531
H  -5.615775  -0.540412   0.308673
H  -5.470464  -1.109088   1.692708
H  -3.379216  -1.211687  -0.531002
