%chk=/home/boittier/MDCM/nms_sampling/methanol_geom.xyz.dir/methanol_1268.chk
%nproc=8
%mem=16000MB
#p B2PLYPD3/Def2QZVP 

methanol

0 1
C  -5.178950  -1.243490   0.913831
O  -3.769523  -1.123042   0.868570
H  -5.475429  -2.270168   0.532999
H  -5.682210  -0.515282   0.401693
H  -5.466437  -1.182365   1.894858
H  -3.493001  -1.221246  -0.142924
