%chk=/home/boittier/MDCM/nms_sampling/methanol_geom.xyz.dir/methanol_2963.chk
%nproc=8
%mem=16000MB
#p B2PLYPD3/Def2QZVP 

methanol

0 1
C  -5.166869  -1.255919   0.901333
O  -3.754742  -1.111902   0.887150
H  -5.492163  -2.207156   0.568427
H  -5.821124  -0.597963   0.409203
H  -5.542371  -1.142454   1.872258
H  -3.637705  -1.277461  -0.322496
