%chk=/home/boittier/MDCM/nms_sampling/methanol_geom.xyz.dir/methanol_2424.chk
%nproc=8
%mem=16000MB
#p B2PLYPD3/Def2QZVP 

methanol

0 1
C  -5.181571  -1.252233   0.921624
O  -3.776904  -1.123068   0.867843
H  -5.656321  -2.200043   0.559192
H  -5.584635  -0.600086   0.375108
H  -5.370685  -1.093717   1.940516
H  -3.361684  -1.190796  -0.271979

