%chk=/home/boittier/MDCM/nms_sampling/methanol_geom.xyz.dir/methanol_1636.chk
%nproc=8
%mem=16000MB
#p B2PLYPD3/Def2QZVP 

methanol

0 1
C  -5.177756  -1.251856   0.925521
O  -3.765429  -1.127317   0.847913
H  -5.485851  -2.268052   0.486808
H  -5.685306  -0.396170   0.319265
H  -5.533397  -1.185267   1.961384
H  -3.480665  -1.184147   0.117414
