%chk=/home/boittier/MDCM/nms_sampling/methanol_geom.xyz.dir/methanol_1567.chk
%nproc=8
%mem=16000MB
#p B2PLYPD3/Def2QZVP 

methanol

0 1
C  -5.165917  -1.260809   0.907351
O  -3.775571  -1.120468   0.884421
H  -5.476720  -2.144144   0.617511
H  -5.709575  -0.481890   0.390230
H  -5.465346  -1.187573   1.835772
H  -3.510945  -1.221093  -0.339001

