%chk=/home/boittier/MDCM/nms_sampling/methanol_geom.xyz.dir/methanol_303.chk
%nproc=8
%mem=16000MB
#p B2PLYPD3/Def2QZVP 

methanol

0 1
C  -5.171832  -1.257555   0.917529
O  -3.774254  -1.120820   0.849873
H  -5.511573  -2.262302   0.559174
H  -5.638140  -0.432737   0.314752
H  -5.455051  -1.147543   1.998355
H  -3.514766  -1.221761   0.074788
