%chk=/home/boittier/MDCM/nms_sampling/methanol_geom.xyz.dir/methanol_639.chk
%nproc=8
%mem=16000MB
#p B2PLYPD3/Def2QZVP 

methanol

0 1
C  -5.172148  -1.255444   0.913340
O  -3.770788  -1.121985   0.850118
H  -5.536760  -2.273032   0.537102
H  -5.674474  -0.459426   0.345774
H  -5.456080  -1.142243   2.023720
H  -3.504609  -1.195942   0.084995
