%chk=/home/boittier/MDCM/nms_sampling/methanol_geom.xyz.dir/methanol_2203.chk
%nproc=8
%mem=16000MB
#p B2PLYPD3/Def2QZVP 

methanol

0 1
C  -5.185998  -1.253614   0.916126
O  -3.757316  -1.122803   0.839086
H  -5.590469  -2.306933   0.516955
H  -5.699599  -0.419999   0.335166
H  -5.503414  -1.152232   2.066715
H  -3.431115  -1.203050   0.220543
