%chk=/home/boittier/MDCM/nms_sampling/methanol_geom.xyz.dir/methanol_1334.chk
%nproc=8
%mem=16000MB
#p B2PLYPD3/Def2QZVP 

methanol

0 1
C  -5.188296  -1.253897   0.928361
O  -3.760617  -1.120081   0.851344
H  -5.507812  -2.314031   0.506786
H  -5.660792  -0.478476   0.308632
H  -5.437953  -1.121908   1.936837
H  -3.543190  -1.201553   0.043138

