%chk=/home/boittier/MDCM/nms_sampling/methanol_geom.xyz.dir/methanol_2995.chk
%nproc=8
%mem=16000MB
#p B2PLYPD3/Def2QZVP 

methanol

0 1
C  -5.196100  -1.270465   0.931842
O  -3.750537  -1.108662   0.843505
H  -5.615821  -2.335687   0.497532
H  -5.730374  -0.446862   0.297803
H  -5.364152  -1.077360   1.959351
H  -3.512976  -1.241906   0.128372
