%chk=/home/boittier/MDCM/nms_sampling/methanol_geom.xyz.dir/methanol_2378.chk
%nproc=8
%mem=16000MB
#p B2PLYPD3/Def2QZVP 

methanol

0 1
C  -5.180954  -1.258724   0.904215
O  -3.759634  -1.119101   0.882085
H  -5.556311  -2.124646   0.544429
H  -5.748770  -0.570527   0.418827
H  -5.445793  -1.189347   1.928624
H  -3.493408  -1.194799  -0.318121
