%chk=/home/boittier/MDCM/nms_sampling/methanol_geom.xyz.dir/methanol_3399.chk
%nproc=8
%mem=16000MB
#p B2PLYPD3/Def2QZVP 

methanol

0 1
C  -5.169485  -1.246265   0.904426
O  -3.787085  -1.127853   0.830311
H  -5.355001  -2.390307   0.556681
H  -5.716266  -0.319699   0.283354
H  -5.434290  -1.174393   2.104419
H  -3.438033  -1.197728   0.478694

