%chk=/home/boittier/MDCM/nms_sampling/methanol_geom.xyz.dir/methanol_892.chk
%nproc=8
%mem=16000MB
#p B2PLYPD3/Def2QZVP 

methanol

0 1
C  -5.183045  -1.251666   0.915099
O  -3.765878  -1.125473   0.852897
H  -5.448616  -2.277223   0.540033
H  -5.688938  -0.442364   0.313039
H  -5.493132  -1.148594   1.984937
H  -3.490798  -1.193186   0.087677

