%chk=/home/boittier/MDCM/nms_sampling/methanol_geom.xyz.dir/methanol_2747.chk
%nproc=8
%mem=16000MB
#p B2PLYPD3/Def2QZVP 

methanol

0 1
C  -5.181025  -1.252263   0.915953
O  -3.758421  -1.119077   0.832286
H  -5.669734  -2.354653   0.499249
H  -5.691613  -0.452867   0.360997
H  -5.480342  -1.121827   2.114792
H  -3.430089  -1.223491   0.277422

