%chk=/home/boittier/MDCM/nms_sampling/methanol_geom.xyz.dir/methanol_1029.chk
%nproc=8
%mem=16000MB
#p B2PLYPD3/Def2QZVP 

methanol

0 1
C  -5.183284  -1.257749   0.910155
O  -3.764997  -1.121827   0.851664
H  -5.466508  -2.240916   0.535840
H  -5.679739  -0.438222   0.329758
H  -5.468378  -1.161332   2.033753
H  -3.516629  -1.207323   0.103203
