%chk=/home/boittier/MDCM/nms_sampling/methanol_geom.xyz.dir/methanol_1259.chk
%nproc=8
%mem=16000MB
#p B2PLYPD3/Def2QZVP 

methanol

0 1
C  -5.187161  -1.263599   0.924031
O  -3.754331  -1.120004   0.850393
H  -5.557069  -2.251703   0.539926
H  -5.754917  -0.392464   0.284180
H  -5.465931  -1.182545   1.952855
H  -3.474373  -1.186192   0.085262
