%chk=/home/boittier/MDCM/nms_sampling/methanol_geom.xyz.dir/methanol_3026.chk
%nproc=8
%mem=16000MB
#p B2PLYPD3/Def2QZVP 

methanol

0 1
C  -5.185378  -1.253927   0.891446
O  -3.748284  -1.114358   0.838862
H  -5.556444  -2.312500   0.490566
H  -5.811056  -0.448674   0.405783
H  -5.502263  -1.192185   2.195168
H  -3.509211  -1.255664   0.339183

