%chk=/home/boittier/MDCM/nms_sampling/methanol_geom.xyz.dir/methanol_2439.chk
%nproc=8
%mem=16000MB
#p B2PLYPD3/Def2QZVP 

methanol

0 1
C  -5.206342  -1.239986   0.910256
O  -3.759162  -1.126693   0.883354
H  -5.489843  -2.132357   0.622026
H  -5.512843  -0.612652   0.382208
H  -5.487281  -1.201637   1.902029
H  -3.470420  -1.227004  -0.422907
