%chk=/home/boittier/MDCM/nms_sampling/methanol_geom.xyz.dir/methanol_2249.chk
%nproc=8
%mem=16000MB
#p B2PLYPD3/Def2QZVP 

methanol

0 1
C  -5.182040  -1.260225   0.917756
O  -3.767869  -1.122051   0.843876
H  -5.467077  -2.256060   0.535312
H  -5.600432  -0.394465   0.312731
H  -5.475245  -1.152744   2.032819
H  -3.555454  -1.212665   0.160932
