%chk=/home/boittier/MDCM/nms_sampling/methanol_geom.xyz.dir/methanol_1341.chk
%nproc=8
%mem=16000MB
#p B2PLYPD3/Def2QZVP 

methanol

0 1
C  -5.182384  -1.248520   0.909280
O  -3.769783  -1.128022   0.880799
H  -5.425276  -2.159524   0.596882
H  -5.638881  -0.549745   0.353449
H  -5.500176  -1.160814   1.888065
H  -3.501418  -1.187542  -0.301329

