%chk=/home/boittier/MDCM/nms_sampling/methanol_geom.xyz.dir/methanol_2230.chk
%nproc=8
%mem=16000MB
#p B2PLYPD3/Def2QZVP 

methanol

0 1
C  -5.175388  -1.248471   0.906367
O  -3.765248  -1.125413   0.846232
H  -5.445749  -2.312454   0.539726
H  -5.748961  -0.405447   0.327527
H  -5.551153  -1.167323   2.044112
H  -3.474486  -1.216473   0.226724
