%chk=/home/boittier/MDCM/nms_sampling/methanol_geom.xyz.dir/methanol_2308.chk
%nproc=8
%mem=16000MB
#p B2PLYPD3/Def2QZVP 

methanol

0 1
C  -5.175413  -1.254762   0.918866
O  -3.762041  -1.119469   0.851454
H  -5.557789  -2.257976   0.561195
H  -5.662845  -0.432638   0.324583
H  -5.518063  -1.191368   1.979890
H  -3.531595  -1.239531   0.040534

