%chk=/home/boittier/MDCM/nms_sampling/methanol_geom.xyz.dir/methanol_2901.chk
%nproc=8
%mem=16000MB
#p B2PLYPD3/Def2QZVP 

methanol

0 1
C  -5.172437  -1.255178   0.913986
O  -3.757876  -1.118188   0.834268
H  -5.552836  -2.265966   0.559875
H  -5.622111  -0.365515   0.299609
H  -5.616757  -1.216456   2.108887
H  -3.575751  -1.293427   0.274716

