%chk=/home/boittier/MDCM/nms_sampling/methanol_geom.xyz.dir/methanol_2325.chk
%nproc=8
%mem=16000MB
#p B2PLYPD3/Def2QZVP 

methanol

0 1
C  -5.173655  -1.258265   0.906789
O  -3.763749  -1.121730   0.883440
H  -5.480727  -2.144115   0.613824
H  -5.703098  -0.494167   0.388097
H  -5.516053  -1.201506   1.853246
H  -3.558493  -1.207610  -0.328817

