%chk=/home/boittier/MDCM/nms_sampling/methanol_geom.xyz.dir/methanol_1419.chk
%nproc=8
%mem=16000MB
#p B2PLYPD3/Def2QZVP 

methanol

0 1
C  -5.162052  -1.246238   0.907869
O  -3.777372  -1.123490   0.878621
H  -5.512108  -2.170891   0.534951
H  -5.724699  -0.570554   0.402961
H  -5.474122  -1.201159   1.918660
H  -3.474473  -1.210051  -0.268537

