%chk=/home/boittier/MDCM/nms_sampling/methanol_geom.xyz.dir/methanol_1929.chk
%nproc=8
%mem=16000MB
#p B2PLYPD3/Def2QZVP 

methanol

0 1
C  -5.175583  -1.245017   0.908987
O  -3.776290  -1.126687   0.851070
H  -5.390898  -2.333570   0.506382
H  -5.698497  -0.438529   0.370019
H  -5.458083  -1.152795   1.996995
H  -3.499239  -1.189434   0.155736

