%chk=/home/boittier/MDCM/nms_sampling/methanol_geom.xyz.dir/methanol_2069.chk
%nproc=8
%mem=16000MB
#p B2PLYPD3/Def2QZVP 

methanol

0 1
C  -5.185435  -1.255953   0.925168
O  -3.766070  -1.121181   0.850032
H  -5.487934  -2.264709   0.542669
H  -5.628508  -0.383155   0.315581
H  -5.463640  -1.202214   1.935660
H  -3.508069  -1.228156   0.062921
