%chk=/home/boittier/MDCM/nms_sampling/methanol_geom.xyz.dir/methanol_2007.chk
%nproc=8
%mem=16000MB
#p B2PLYPD3/Def2QZVP 

methanol

0 1
C  -5.179876  -1.260398   0.907921
O  -3.771386  -1.120931   0.879062
H  -5.513630  -2.123858   0.562327
H  -5.670154  -0.564686   0.381628
H  -5.381512  -1.163535   1.934771
H  -3.505001  -1.175668  -0.299556
