%chk=/home/boittier/MDCM/nms_sampling/methanol_geom.xyz.dir/methanol_1072.chk
%nproc=8
%mem=16000MB
#p B2PLYPD3/Def2QZVP 

methanol

0 1
C  -5.176546  -1.258398   0.907862
O  -3.769829  -1.120822   0.852922
H  -5.511536  -2.246548   0.548500
H  -5.706606  -0.448748   0.344337
H  -5.442387  -1.152177   2.034266
H  -3.474468  -1.207386   0.082523
