%chk=/home/boittier/MDCM/nms_sampling/methanol_geom.xyz.dir/methanol_991.chk
%nproc=8
%mem=16000MB
#p B2PLYPD3/Def2QZVP 

methanol

0 1
C  -5.182662  -1.253910   0.912710
O  -3.766067  -1.123430   0.870043
H  -5.487922  -2.169738   0.562265
H  -5.637500  -0.515514   0.356041
H  -5.494041  -1.166807   1.940260
H  -3.502365  -1.215362  -0.186641
