%chk=/home/boittier/MDCM/nms_sampling/methanol_geom.xyz.dir/methanol_64.chk
%nproc=8
%mem=16000MB
#p B2PLYPD3/Def2QZVP 

methanol

0 1
C  -5.184607  -1.255177   0.910172
O  -3.760660  -1.125376   0.871540
H  -5.515868  -2.172897   0.566406
H  -5.713835  -0.508318   0.357577
H  -5.497248  -1.167465   1.934584
H  -3.456098  -1.176338  -0.180894
