%chk=/home/boittier/MDCM/nms_sampling/methanol_geom.xyz.dir/methanol_1564.chk
%nproc=8
%mem=16000MB
#p B2PLYPD3/Def2QZVP 

methanol

0 1
C  -5.189544  -1.257537   0.909310
O  -3.757324  -1.116665   0.883975
H  -5.520497  -2.182394   0.580407
H  -5.742389  -0.534264   0.410611
H  -5.431431  -1.183173   1.838685
H  -3.490326  -1.229086  -0.341785
