%chk=/home/boittier/MDCM/nms_sampling/methanol_geom.xyz.dir/methanol_2463.chk
%nproc=8
%mem=16000MB
#p B2PLYPD3/Def2QZVP 

methanol

0 1
C  -5.197588  -1.263960   0.929025
O  -3.752597  -1.112659   0.880691
H  -5.608789  -2.232049   0.558892
H  -5.676354  -0.517473   0.421974
H  -5.332244  -1.169089   1.737782
H  -3.550552  -1.194907  -0.404805
