%chk=/home/boittier/MDCM/nms_sampling/methanol_geom.xyz.dir/methanol_775.chk
%nproc=8
%mem=16000MB
#p B2PLYPD3/Def2QZVP 

methanol

0 1
C  -5.173325  -1.250460   0.910453
O  -3.774758  -1.123083   0.851015
H  -5.472140  -2.270335   0.542847
H  -5.677387  -0.471022   0.318717
H  -5.448150  -1.160906   2.039702
H  -3.498599  -1.207054   0.108088
