%chk=/home/boittier/MDCM/nms_sampling/methanol_geom.xyz.dir/methanol_2581.chk
%nproc=8
%mem=16000MB
#p B2PLYPD3/Def2QZVP 

methanol

0 1
C  -5.168982  -1.252446   0.901640
O  -3.781608  -1.119479   0.833737
H  -5.378263  -2.450909   0.537775
H  -5.789625  -0.360602   0.327254
H  -5.314872  -1.154059   2.077568
H  -3.559625  -1.170322   0.458906
