%chk=/home/boittier/MDCM/nms_sampling/methanol_geom.xyz.dir/methanol_2684.chk
%nproc=8
%mem=16000MB
#p B2PLYPD3/Def2QZVP 

methanol

0 1
C  -5.193554  -1.267852   0.909946
O  -3.751180  -1.115958   0.874555
H  -5.484314  -2.166216   0.621393
H  -5.842435  -0.427825   0.288051
H  -5.448296  -1.209087   1.875661
H  -3.452222  -1.224266  -0.151853

