%chk=/home/boittier/MDCM/nms_sampling/methanol_geom.xyz.dir/methanol_487.chk
%nproc=8
%mem=16000MB
#p B2PLYPD3/Def2QZVP 

methanol

0 1
C  -5.185380  -1.252389   0.919193
O  -3.765714  -1.125704   0.856512
H  -5.484913  -2.251952   0.550067
H  -5.621377  -0.442815   0.342464
H  -5.491903  -1.160443   1.944442
H  -3.497228  -1.194211  -0.016888

