%chk=/home/boittier/MDCM/nms_sampling/methanol_geom.xyz.dir/methanol_2746.chk
%nproc=8
%mem=16000MB
#p B2PLYPD3/Def2QZVP 

methanol

0 1
C  -5.172343  -1.253198   0.897237
O  -3.787554  -1.128568   0.856887
H  -5.323738  -2.163807   0.550696
H  -5.631888  -0.462893   0.309979
H  -5.482972  -1.146298   2.105106
H  -3.459956  -1.220284   0.098734
