%chk=/home/boittier/MDCM/nms_sampling/methanol_geom.xyz.dir/methanol_1805.chk
%nproc=8
%mem=16000MB
#p B2PLYPD3/Def2QZVP 

methanol

0 1
C  -5.176943  -1.251723   0.921325
O  -3.764396  -1.119626   0.868360
H  -5.560166  -2.175840   0.517918
H  -5.611191  -0.552888   0.373192
H  -5.478051  -1.195984   1.930654
H  -3.567879  -1.225578  -0.224664

