%chk=/home/boittier/MDCM/nms_sampling/methanol_geom.xyz.dir/methanol_3160.chk
%nproc=8
%mem=16000MB
#p B2PLYPD3/Def2QZVP 

methanol

0 1
C  -5.164594  -1.240116   0.904307
O  -3.780482  -1.133780   0.844349
H  -5.458351  -2.327890   0.472930
H  -5.671617  -0.449408   0.420973
H  -5.514262  -1.145843   2.081005
H  -3.460725  -1.140003   0.217720

