%chk=/home/boittier/MDCM/nms_sampling/methanol_geom.xyz.dir/methanol_518.chk
%nproc=8
%mem=16000MB
#p B2PLYPD3/Def2QZVP 

methanol

0 1
C  -5.179479  -1.252970   0.919776
O  -3.764023  -1.125291   0.866900
H  -5.521814  -2.204618   0.558895
H  -5.646716  -0.468896   0.362105
H  -5.522497  -1.181650   1.890653
H  -3.497728  -1.196604  -0.168153

