%chk=/home/boittier/MDCM/nms_sampling/methanol_geom.xyz.dir/methanol_2455.chk
%nproc=8
%mem=16000MB
#p B2PLYPD3/Def2QZVP 

methanol

0 1
C  -5.218272  -1.263202   0.921856
O  -3.746075  -1.110868   0.834095
H  -5.524975  -2.402849   0.504686
H  -5.727394  -0.356325   0.332592
H  -5.307127  -1.156222   2.001409
H  -3.475835  -1.232318   0.319644

