%chk=/home/boittier/MDCM/nms_sampling/methanol_geom.xyz.dir/methanol_1810.chk
%nproc=8
%mem=16000MB
#p B2PLYPD3/Def2QZVP 

methanol

0 1
C  -5.200681  -1.253718   0.918543
O  -3.759945  -1.128126   0.851609
H  -5.504612  -2.207736   0.536010
H  -5.624610  -0.445720   0.306250
H  -5.449112  -1.187294   2.016271
H  -3.427584  -1.155960   0.045270
