%chk=/home/boittier/MDCM/nms_sampling/methanol_geom.xyz.dir/methanol_2501.chk
%nproc=8
%mem=16000MB
#p B2PLYPD3/Def2QZVP 

methanol

0 1
C  -5.160401  -1.230006   0.929023
O  -3.786917  -1.128788   0.887279
H  -5.538829  -2.244888   0.550173
H  -5.635864  -0.641124   0.392747
H  -5.454517  -1.170613   1.743293
H  -3.432771  -1.195021  -0.484153
