%chk=/home/boittier/MDCM/nms_sampling/methanol_geom.xyz.dir/methanol_894.chk
%nproc=8
%mem=16000MB
#p B2PLYPD3/Def2QZVP 

methanol

0 1
C  -5.177124  -1.252804   0.916788
O  -3.765013  -1.119896   0.854116
H  -5.536161  -2.252818   0.516868
H  -5.682797  -0.472464   0.349630
H  -5.473959  -1.183457   1.992680
H  -3.513099  -1.225290   0.025828

