%chk=/home/boittier/MDCM/nms_sampling/methanol_geom.xyz.dir/methanol_2938.chk
%nproc=8
%mem=16000MB
#p B2PLYPD3/Def2QZVP 

methanol

0 1
C  -5.185437  -1.266564   0.889249
O  -3.752179  -1.115519   0.831299
H  -5.501256  -2.259897   0.557400
H  -5.800094  -0.307394   0.331172
H  -5.493853  -1.241479   2.223989
H  -3.508176  -1.241527   0.468908
