%chk=/home/boittier/MDCM/nms_sampling/methanol_geom.xyz.dir/methanol_3379.chk
%nproc=8
%mem=16000MB
#p B2PLYPD3/Def2QZVP 

methanol

0 1
C  -5.146463  -1.261667   0.915480
O  -3.781915  -1.120611   0.884731
H  -5.622252  -2.070636   0.666212
H  -5.559864  -0.554253   0.360436
H  -5.543282  -1.158136   1.864856
H  -3.561564  -1.243275  -0.490490
