%chk=/home/boittier/MDCM/nms_sampling/methanol_geom.xyz.dir/methanol_978.chk
%nproc=8
%mem=16000MB
#p B2PLYPD3/Def2QZVP 

methanol

0 1
C  -5.180439  -1.249749   0.906234
O  -3.763359  -1.122200   0.857047
H  -5.506261  -2.270665   0.550569
H  -5.714045  -0.486722   0.364215
H  -5.482689  -1.166291   2.013185
H  -3.491967  -1.209756   0.034026

