%chk=/home/boittier/MDCM/nms_sampling/methanol_geom.xyz.dir/methanol_522.chk
%nproc=8
%mem=16000MB
#p B2PLYPD3/Def2QZVP 

methanol

0 1
C  -5.190553  -1.258279   0.917008
O  -3.760645  -1.124331   0.854412
H  -5.519854  -2.222649   0.552735
H  -5.664603  -0.455334   0.307567
H  -5.471987  -1.143643   1.996350
H  -3.458655  -1.182569   0.020355

