%chk=/home/boittier/MDCM/nms_sampling/methanol_geom.xyz.dir/methanol_897.chk
%nproc=8
%mem=16000MB
#p B2PLYPD3/Def2QZVP 

methanol

0 1
C  -5.180338  -1.260107   0.916467
O  -3.769074  -1.119336   0.868408
H  -5.555657  -2.200608   0.568878
H  -5.669493  -0.507907   0.359636
H  -5.401713  -1.146591   1.915125
H  -3.477418  -1.201424  -0.187246

