%chk=/home/boittier/MDCM/nms_sampling/methanol_geom.xyz.dir/methanol_2835.chk
%nproc=8
%mem=16000MB
#p B2PLYPD3/Def2QZVP 

methanol

0 1
C  -5.160268  -1.231328   0.926255
O  -3.778009  -1.129956   0.881094
H  -5.659720  -2.153877   0.530592
H  -5.590195  -0.690714   0.383954
H  -5.517535  -1.196602   1.880352
H  -3.432581  -1.182423  -0.465914
