%chk=/home/boittier/MDCM/nms_sampling/methanol_geom.xyz.dir/methanol_2122.chk
%nproc=8
%mem=16000MB
#p B2PLYPD3/Def2QZVP 

methanol

0 1
C  -5.175471  -1.261447   0.905611
O  -3.762051  -1.117345   0.852095
H  -5.454951  -2.256907   0.552578
H  -5.757607  -0.362932   0.350967
H  -5.507150  -1.209735   2.002758
H  -3.546094  -1.248759   0.146398
