%chk=/home/boittier/MDCM/nms_sampling/methanol_geom.xyz.dir/methanol_2143.chk
%nproc=8
%mem=16000MB
#p B2PLYPD3/Def2QZVP 

methanol

0 1
C  -5.181252  -1.240342   0.908332
O  -3.769442  -1.123824   0.851945
H  -5.430857  -2.353827   0.550067
H  -5.694869  -0.474753   0.348234
H  -5.473406  -1.158175   1.998779
H  -3.495165  -1.225790   0.125755

