%chk=/home/boittier/MDCM/nms_sampling/methanol_geom.xyz.dir/methanol_1214.chk
%nproc=8
%mem=16000MB
#p B2PLYPD3/Def2QZVP 

methanol

0 1
C  -5.184904  -1.268985   0.908896
O  -3.758581  -1.118771   0.876310
H  -5.541652  -2.113819   0.586596
H  -5.715712  -0.500187   0.357751
H  -5.453024  -1.159871   1.925237
H  -3.499824  -1.195230  -0.255345

