%chk=/home/boittier/MDCM/nms_sampling/methanol_geom.xyz.dir/methanol_2012.chk
%nproc=8
%mem=16000MB
#p B2PLYPD3/Def2QZVP 

methanol

0 1
C  -5.161659  -1.260669   0.920682
O  -3.772333  -1.119425   0.848484
H  -5.525797  -2.274930   0.477132
H  -5.743343  -0.421830   0.338378
H  -5.465102  -1.152482   1.988601
H  -3.532810  -1.202621   0.127479
