%chk=/home/boittier/MDCM/nms_sampling/methanol_geom.xyz.dir/methanol_3536.chk
%nproc=8
%mem=16000MB
#p B2PLYPD3/Def2QZVP 

methanol

0 1
C  -5.161631  -1.233511   0.893413
O  -3.790625  -1.127714   0.898069
H  -5.432423  -2.208552   0.625861
H  -5.623843  -0.718884   0.465810
H  -5.459763  -1.078744   1.869670
H  -3.477263  -1.219239  -0.518691

