%chk=/home/boittier/MDCM/nms_sampling/methanol_geom.xyz.dir/methanol_2266.chk
%nproc=8
%mem=16000MB
#p B2PLYPD3/Def2QZVP 

methanol

0 1
C  -5.179695  -1.269769   0.906672
O  -3.771281  -1.119727   0.878452
H  -5.483614  -2.148883   0.603912
H  -5.701540  -0.466111   0.387051
H  -5.397044  -1.138050   1.879227
H  -3.488376  -1.188098  -0.260911
