%chk=/home/boittier/MDCM/nms_sampling/methanol_geom.xyz.dir/methanol_3341.chk
%nproc=8
%mem=16000MB
#p B2PLYPD3/Def2QZVP 

methanol

0 1
C  -5.190292  -1.270781   0.916681
O  -3.761853  -1.114107   0.831018
H  -5.313239  -2.309544   0.492181
H  -5.703879  -0.277213   0.247852
H  -5.483236  -1.140004   2.068592
H  -3.597658  -1.291626   0.455753
