%chk=/home/boittier/MDCM/nms_sampling/methanol_geom.xyz.dir/methanol_3251.chk
%nproc=8
%mem=16000MB
#p B2PLYPD3/Def2QZVP 

methanol

0 1
C  -5.211054  -1.277750   0.932951
O  -3.746476  -1.116557   0.887935
H  -5.511877  -2.093831   0.637192
H  -5.616414  -0.509014   0.273480
H  -5.425460  -1.097754   1.731667
H  -3.544939  -1.201493  -0.498348
