%chk=/home/boittier/MDCM/nms_sampling/methanol_geom.xyz.dir/methanol_189.chk
%nproc=8
%mem=16000MB
#p B2PLYPD3/Def2QZVP 

methanol

0 1
C  -5.175256  -1.248319   0.910606
O  -3.773491  -1.125352   0.871814
H  -5.481300  -2.199563   0.570176
H  -5.663409  -0.546191   0.354528
H  -5.457900  -1.164202   1.935771
H  -3.490462  -1.189281  -0.192631

