%chk=/home/boittier/MDCM/nms_sampling/methanol_geom.xyz.dir/methanol_1634.chk
%nproc=8
%mem=16000MB
#p B2PLYPD3/Def2QZVP 

methanol

0 1
C  -5.187868  -1.262022   0.909568
O  -3.768927  -1.127624   0.882025
H  -5.459813  -2.121260   0.597090
H  -5.708002  -0.499639   0.349682
H  -5.429471  -1.145357   1.871106
H  -3.413451  -1.143112  -0.303796

