%chk=/home/boittier/MDCM/nms_sampling/methanol_geom.xyz.dir/methanol_2540.chk
%nproc=8
%mem=16000MB
#p B2PLYPD3/Def2QZVP 

methanol

0 1
C  -5.165490  -1.256915   0.897507
O  -3.762447  -1.114823   0.830715
H  -5.468269  -2.342475   0.482759
H  -5.789902  -0.424624   0.324267
H  -5.512685  -1.145615   2.214373
H  -3.613631  -1.254251   0.469486

