%chk=/home/boittier/MDCM/nms_sampling/methanol_geom.xyz.dir/methanol_2211.chk
%nproc=8
%mem=16000MB
#p B2PLYPD3/Def2QZVP 

methanol

0 1
C  -5.196867  -1.255361   0.927340
O  -3.758087  -1.118483   0.867702
H  -5.560296  -2.226703   0.543048
H  -5.651538  -0.528959   0.336265
H  -5.407439  -1.150755   1.870695
H  -3.470867  -1.217056  -0.210156
