%chk=/home/boittier/MDCM/nms_sampling/methanol_geom.xyz.dir/methanol_1311.chk
%nproc=8
%mem=16000MB
#p B2PLYPD3/Def2QZVP 

methanol

0 1
C  -5.173564  -1.255104   0.927087
O  -3.774336  -1.120478   0.843487
H  -5.484809  -2.283400   0.503060
H  -5.648310  -0.390660   0.295453
H  -5.440327  -1.197291   1.980254
H  -3.523302  -1.225721   0.160083

