%chk=/home/boittier/MDCM/nms_sampling/methanol_geom.xyz.dir/methanol_2106.chk
%nproc=8
%mem=16000MB
#p B2PLYPD3/Def2QZVP 

methanol

0 1
C  -5.185951  -1.261044   0.914510
O  -3.763739  -1.118610   0.854336
H  -5.525480  -2.209896   0.564717
H  -5.605349  -0.436642   0.345233
H  -5.450094  -1.182596   2.001049
H  -3.538505  -1.230363  -0.001724
