%chk=/home/boittier/MDCM/nms_sampling/methanol_geom.xyz.dir/methanol_1835.chk
%nproc=8
%mem=16000MB
#p B2PLYPD3/Def2QZVP 

methanol

0 1
C  -5.201240  -1.261361   0.922679
O  -3.754781  -1.118419   0.849579
H  -5.504861  -2.265950   0.545676
H  -5.690481  -0.420207   0.278190
H  -5.407584  -1.164669   1.972815
H  -3.483695  -1.207061   0.094006

