%chk=/home/boittier/MDCM/nms_sampling/methanol_geom.xyz.dir/methanol_1817.chk
%nproc=8
%mem=16000MB
#p B2PLYPD3/Def2QZVP 

methanol

0 1
C  -5.172727  -1.263551   0.917168
O  -3.767887  -1.125029   0.840924
H  -5.536234  -2.285810   0.542747
H  -5.735844  -0.334635   0.309505
H  -5.479619  -1.156707   2.014545
H  -3.450616  -1.158397   0.232742
