%chk=/home/boittier/MDCM/nms_sampling/methanol_geom.xyz.dir/methanol_1764.chk
%nproc=8
%mem=16000MB
#p B2PLYPD3/Def2QZVP 

methanol

0 1
C  -5.193490  -1.251200   0.907377
O  -3.760586  -1.126120   0.843572
H  -5.465244  -2.338382   0.541753
H  -5.712864  -0.420848   0.336636
H  -5.457945  -1.128205   2.054525
H  -3.450512  -1.167647   0.237322
