%chk=/home/boittier/MDCM/nms_sampling/methanol_geom.xyz.dir/methanol_539.chk
%nproc=8
%mem=16000MB
#p B2PLYPD3/Def2QZVP 

methanol

0 1
C  -5.168802  -1.259497   0.908269
O  -3.770974  -1.120624   0.865032
H  -5.514441  -2.180486   0.576877
H  -5.673984  -0.468602   0.361633
H  -5.494090  -1.173351   1.971777
H  -3.520619  -1.225783  -0.102900
