%chk=/home/boittier/MDCM/nms_sampling/methanol_geom.xyz.dir/methanol_784.chk
%nproc=8
%mem=16000MB
#p B2PLYPD3/Def2QZVP 

methanol

0 1
C  -5.183974  -1.257585   0.919329
O  -3.760038  -1.119777   0.865998
H  -5.556386  -2.230021   0.559353
H  -5.694174  -0.486510   0.356150
H  -5.444547  -1.169109   1.896840
H  -3.508851  -1.195755  -0.148979

