%chk=/home/boittier/MDCM/nms_sampling/methanol_geom.xyz.dir/methanol_1114.chk
%nproc=8
%mem=16000MB
#p B2PLYPD3/Def2QZVP 

methanol

0 1
C  -5.180112  -1.257020   0.913491
O  -3.768301  -1.120109   0.867487
H  -5.467398  -2.200825   0.559540
H  -5.677068  -0.485292   0.344094
H  -5.450387  -1.171962   1.928178
H  -3.522300  -1.223434  -0.126070
