%chk=/home/boittier/MDCM/nms_sampling/methanol_geom.xyz.dir/methanol_3147.chk
%nproc=8
%mem=16000MB
#p B2PLYPD3/Def2QZVP 

methanol

0 1
C  -5.201758  -1.232290   0.899817
O  -3.761266  -1.125464   0.855242
H  -5.413433  -2.288219   0.490978
H  -5.665879  -0.585984   0.373646
H  -5.434627  -1.191215   2.104959
H  -3.474603  -1.210625   0.091801

