%chk=/home/boittier/MDCM/nms_sampling/methanol_geom.xyz.dir/methanol_1318.chk
%nproc=8
%mem=16000MB
#p B2PLYPD3/Def2QZVP 

methanol

0 1
C  -5.164818  -1.258325   0.900796
O  -3.774096  -1.122454   0.847949
H  -5.472300  -2.248777   0.580482
H  -5.703255  -0.413741   0.321379
H  -5.490550  -1.165652   2.089548
H  -3.533259  -1.205180   0.182521

