%chk=/home/boittier/MDCM/nms_sampling/methanol_geom.xyz.dir/methanol_612.chk
%nproc=8
%mem=16000MB
#p B2PLYPD3/Def2QZVP 

methanol

0 1
C  -5.182005  -1.255551   0.910032
O  -3.768028  -1.124175   0.855719
H  -5.496275  -2.220627   0.537341
H  -5.716044  -0.449627   0.333799
H  -5.449612  -1.179615   2.016535
H  -3.435516  -1.186688   0.049712
