%chk=/home/boittier/MDCM/nms_sampling/methanol_geom.xyz.dir/methanol_1060.chk
%nproc=8
%mem=16000MB
#p B2PLYPD3/Def2QZVP 

methanol

0 1
C  -5.191083  -1.255669   0.918569
O  -3.761882  -1.124722   0.850954
H  -5.515245  -2.267481   0.563923
H  -5.663570  -0.422622   0.310008
H  -5.456904  -1.157883   1.976853
H  -3.454266  -1.179166   0.067166
