%chk=/home/boittier/MDCM/nms_sampling/methanol_geom.xyz.dir/methanol_2827.chk
%nproc=8
%mem=16000MB
#p B2PLYPD3/Def2QZVP 

methanol

0 1
C  -5.209165  -1.258757   0.935581
O  -3.752562  -1.110781   0.893034
H  -5.585669  -2.186721   0.565939
H  -5.672898  -0.636872   0.352566
H  -5.300126  -1.136770   1.694003
H  -3.483775  -1.238046  -0.582617
