%chk=/home/boittier/MDCM/nms_sampling/methanol_geom.xyz.dir/methanol_3489.chk
%nproc=8
%mem=16000MB
#p B2PLYPD3/Def2QZVP 

methanol

0 1
C  -5.199459  -1.241513   0.917639
O  -3.746915  -1.123079   0.840139
H  -5.669942  -2.287560   0.436502
H  -5.694638  -0.482938   0.407153
H  -5.497887  -1.236762   2.092801
H  -3.373766  -1.208149   0.165299
