%chk=/home/boittier/MDCM/nms_sampling/methanol_geom.xyz.dir/methanol_2179.chk
%nproc=8
%mem=16000MB
#p B2PLYPD3/Def2QZVP 

methanol

0 1
C  -5.161474  -1.249597   0.913986
O  -3.777557  -1.124603   0.868069
H  -5.535008  -2.160472   0.554852
H  -5.651752  -0.511112   0.356822
H  -5.514032  -1.208943   1.953290
H  -3.483523  -1.219389  -0.176256
