%chk=/home/boittier/MDCM/nms_sampling/methanol_geom.xyz.dir/methanol_2222.chk
%nproc=8
%mem=16000MB
#p B2PLYPD3/Def2QZVP 

methanol

0 1
C  -5.177269  -1.258101   0.915547
O  -3.761226  -1.116986   0.872031
H  -5.493277  -2.198536   0.523690
H  -5.715057  -0.506769   0.379007
H  -5.498149  -1.165681   1.893112
H  -3.557359  -1.248588  -0.188463

