%chk=/home/boittier/MDCM/nms_sampling/methanol_geom.xyz.dir/methanol_3347.chk
%nproc=8
%mem=16000MB
#p B2PLYPD3/Def2QZVP 

methanol

0 1
C  -5.140907  -1.256034   0.899879
O  -3.784341  -1.113806   0.852627
H  -5.436451  -2.364863   0.560375
H  -5.800111  -0.419959   0.378014
H  -5.492234  -1.117309   1.997175
H  -3.597758  -1.287515   0.178020
