%chk=/home/boittier/MDCM/nms_sampling/methanol_geom.xyz.dir/methanol_3077.chk
%nproc=8
%mem=16000MB
#p B2PLYPD3/Def2QZVP 

methanol

0 1
C  -5.170284  -1.249843   0.938282
O  -3.769014  -1.127943   0.886696
H  -5.544444  -2.078518   0.554390
H  -5.568047  -0.527709   0.339297
H  -5.628323  -1.201551   1.734678
H  -3.471921  -1.243028  -0.527947
