%chk=/home/boittier/MDCM/nms_sampling/methanol_geom.xyz.dir/methanol_2342.chk
%nproc=8
%mem=16000MB
#p B2PLYPD3/Def2QZVP 

methanol

0 1
C  -5.163245  -1.251970   0.910872
O  -3.775755  -1.125458   0.846789
H  -5.453736  -2.276363   0.511188
H  -5.771189  -0.392272   0.314163
H  -5.489193  -1.205351   2.033465
H  -3.476803  -1.185574   0.215623
