%chk=/home/boittier/MDCM/nms_sampling/methanol_geom.xyz.dir/methanol_2239.chk
%nproc=8
%mem=16000MB
#p B2PLYPD3/Def2QZVP 

methanol

0 1
C  -5.185048  -1.265678   0.901418
O  -3.757318  -1.117720   0.879234
H  -5.556217  -2.109708   0.607335
H  -5.720943  -0.503068   0.397922
H  -5.454918  -1.200229   1.934903
H  -3.496780  -1.210360  -0.284440

