%chk=/home/boittier/MDCM/nms_sampling/methanol_geom.xyz.dir/methanol_3467.chk
%nproc=8
%mem=16000MB
#p B2PLYPD3/Def2QZVP 

methanol

0 1
C  -5.185668  -1.263505   0.922387
O  -3.758683  -1.120458   0.838186
H  -5.420534  -2.275756   0.525071
H  -5.666974  -0.306021   0.267800
H  -5.506778  -1.208879   2.008366
H  -3.601609  -1.216538   0.280483
