%chk=/home/boittier/MDCM/nms_sampling/methanol_geom.xyz.dir/methanol_1670.chk
%nproc=8
%mem=16000MB
#p B2PLYPD3/Def2QZVP 

methanol

0 1
C  -5.181768  -1.255402   0.914728
O  -3.769204  -1.122825   0.850911
H  -5.480781  -2.287445   0.492120
H  -5.767319  -0.428817   0.340500
H  -5.391599  -1.173438   1.993134
H  -3.444784  -1.166343   0.136459

