%chk=/home/boittier/MDCM/nms_sampling/methanol_geom.xyz.dir/methanol_987.chk
%nproc=8
%mem=16000MB
#p B2PLYPD3/Def2QZVP 

methanol

0 1
C  -5.178566  -1.254244   0.919786
O  -3.762587  -1.122928   0.851001
H  -5.525154  -2.262520   0.543220
H  -5.676527  -0.422929   0.319652
H  -5.506243  -1.185923   1.974332
H  -3.515227  -1.202207   0.065264
