%chk=/home/boittier/MDCM/nms_sampling/methanol_geom.xyz.dir/methanol_2006.chk
%nproc=8
%mem=16000MB
#p B2PLYPD3/Def2QZVP 

methanol

0 1
C  -5.180089  -1.243201   0.910052
O  -3.765540  -1.126231   0.882048
H  -5.475799  -2.174886   0.601557
H  -5.686218  -0.565878   0.354228
H  -5.526071  -1.194965   1.873965
H  -3.474162  -1.212132  -0.321737
