%chk=/home/boittier/MDCM/nms_sampling/methanol_geom.xyz.dir/methanol_2710.chk
%nproc=8
%mem=16000MB
#p B2PLYPD3/Def2QZVP 

methanol

0 1
C  -5.154353  -1.274660   0.897350
O  -3.771872  -1.121035   0.849947
H  -5.458999  -2.176683   0.581124
H  -5.809086  -0.360837   0.280709
H  -5.520635  -1.155942   2.103613
H  -3.557862  -1.180764   0.214053

