%chk=/home/boittier/MDCM/nms_sampling/methanol_geom.xyz.dir/methanol_3419.chk
%nproc=8
%mem=16000MB
#p B2PLYPD3/Def2QZVP 

methanol

0 1
C  -5.193286  -1.234540   0.916507
O  -3.763747  -1.123888   0.839657
H  -5.362286  -2.387458   0.439477
H  -5.720324  -0.437515   0.326438
H  -5.464851  -1.216225   2.037496
H  -3.497401  -1.235469   0.321173

