%chk=/home/boittier/MDCM/nms_sampling/methanol_geom.xyz.dir/methanol_2156.chk
%nproc=8
%mem=16000MB
#p B2PLYPD3/Def2QZVP 

methanol

0 1
C  -5.169147  -1.256248   0.927186
O  -3.762748  -1.119424   0.862167
H  -5.555921  -2.261175   0.517501
H  -5.705654  -0.485538   0.342909
H  -5.505281  -1.147727   1.879591
H  -3.567265  -1.209633  -0.106769

