%chk=/home/boittier/MDCM/nms_sampling/methanol_geom.xyz.dir/methanol_2112.chk
%nproc=8
%mem=16000MB
#p B2PLYPD3/Def2QZVP 

methanol

0 1
C  -5.173808  -1.250629   0.907172
O  -3.772550  -1.128405   0.878596
H  -5.519828  -2.131145   0.573422
H  -5.692292  -0.549007   0.377370
H  -5.478855  -1.187020   1.930023
H  -3.428453  -1.161449  -0.284399

