%chk=/home/boittier/MDCM/nms_sampling/methanol_geom.xyz.dir/methanol_1116.chk
%nproc=8
%mem=16000MB
#p B2PLYPD3/Def2QZVP 

methanol

0 1
C  -5.189023  -1.259505   0.919126
O  -3.760924  -1.119415   0.867942
H  -5.543627  -2.207339   0.559077
H  -5.652794  -0.488842   0.370002
H  -5.442972  -1.152939   1.893082
H  -3.492248  -1.214873  -0.188278
