%chk=/home/boittier/MDCM/nms_sampling/methanol_geom.xyz.dir/methanol_657.chk
%nproc=8
%mem=16000MB
#p B2PLYPD3/Def2QZVP 

methanol

0 1
C  -5.183163  -1.258622   0.919695
O  -3.763721  -1.119821   0.853365
H  -5.531003  -2.276802   0.533820
H  -5.698624  -0.442232   0.334298
H  -5.447751  -1.137304   1.957457
H  -3.479342  -1.211551   0.039636

