%chk=/home/boittier/MDCM/nms_sampling/methanol_geom.xyz.dir/methanol_3301.chk
%nproc=8
%mem=16000MB
#p B2PLYPD3/Def2QZVP 

methanol

0 1
C  -5.148079  -1.255332   0.935945
O  -3.781947  -1.124355   0.883910
H  -5.598194  -2.139071   0.569087
H  -5.605677  -0.495339   0.383352
H  -5.505050  -1.218062   1.716299
H  -3.556568  -1.186855  -0.490840

