%chk=/home/boittier/MDCM/nms_sampling/methanol_geom.xyz.dir/methanol_3176.chk
%nproc=8
%mem=16000MB
#p B2PLYPD3/Def2QZVP 

methanol

0 1
C  -5.158270  -1.271052   0.905134
O  -3.787096  -1.119251   0.873634
H  -5.339714  -2.134299   0.575224
H  -5.704611  -0.426772   0.331727
H  -5.431987  -1.149239   1.922173
H  -3.588886  -1.223765  -0.126098

