%chk=/home/boittier/MDCM/nms_sampling/methanol_geom.xyz.dir/methanol_3239.chk
%nproc=8
%mem=16000MB
#p B2PLYPD3/Def2QZVP 

methanol

0 1
C  -5.136947  -1.258277   0.924834
O  -3.783905  -1.116060   0.840907
H  -5.547610  -2.322413   0.569201
H  -5.713778  -0.325750   0.286189
H  -5.508292  -1.224177   1.954484
H  -3.598173  -1.262102   0.202436

