%chk=/home/boittier/MDCM/nms_sampling/methanol_geom.xyz.dir/methanol_734.chk
%nproc=8
%mem=16000MB
#p B2PLYPD3/Def2QZVP 

methanol

0 1
C  -5.182152  -1.256704   0.921742
O  -3.767777  -1.120128   0.858928
H  -5.527923  -2.258412   0.537123
H  -5.685794  -0.471965   0.333251
H  -5.403909  -1.156113   1.925977
H  -3.486880  -1.196449  -0.046614
