%chk=/home/boittier/MDCM/nms_sampling/methanol_geom.xyz.dir/methanol_846.chk
%nproc=8
%mem=16000MB
#p B2PLYPD3/Def2QZVP 

methanol

0 1
C  -5.182405  -1.254549   0.911223
O  -3.764511  -1.125388   0.867542
H  -5.484188  -2.204381   0.566801
H  -5.676514  -0.467414   0.371440
H  -5.504956  -1.167428   1.924475
H  -3.481787  -1.192013  -0.129562

