%chk=/home/boittier/MDCM/nms_sampling/methanol_geom.xyz.dir/methanol_2098.chk
%nproc=8
%mem=16000MB
#p B2PLYPD3/Def2QZVP 

methanol

0 1
C  -5.166320  -1.252724   0.923993
O  -3.772548  -1.123326   0.874801
H  -5.600985  -2.175714   0.539717
H  -5.656585  -0.562809   0.372264
H  -5.494399  -1.138893   1.868064
H  -3.460404  -1.205059  -0.317986

