%chk=/home/boittier/MDCM/nms_sampling/methanol_geom.xyz.dir/methanol_1034.chk
%nproc=8
%mem=16000MB
#p B2PLYPD3/Def2QZVP 

methanol

0 1
C  -5.182634  -1.256149   0.914882
O  -3.764363  -1.120905   0.848326
H  -5.514805  -2.266396   0.559478
H  -5.645192  -0.437901   0.315683
H  -5.461358  -1.165335   2.024213
H  -3.528974  -1.210545   0.103559

