%chk=/home/boittier/MDCM/nms_sampling/methanol_geom.xyz.dir/methanol_1241.chk
%nproc=8
%mem=16000MB
#p B2PLYPD3/Def2QZVP 

methanol

0 1
C  -5.181803  -1.263880   0.917446
O  -3.767418  -1.126658   0.838797
H  -5.546283  -2.222577   0.509821
H  -5.667256  -0.369108   0.306674
H  -5.471147  -1.156469   2.083038
H  -3.418588  -1.157403   0.226820
