%chk=/home/boittier/MDCM/nms_sampling/methanol_geom.xyz.dir/methanol_3592.chk
%nproc=8
%mem=16000MB
#p B2PLYPD3/Def2QZVP 

methanol

0 1
C  -5.208670  -1.243035   0.894873
O  -3.756044  -1.128449   0.830615
H  -5.437098  -2.394705   0.514090
H  -5.714792  -0.475058   0.329980
H  -5.431340  -1.085669   2.223279
H  -3.406477  -1.153277   0.457175

