%chk=/home/boittier/MDCM/nms_sampling/methanol_geom.xyz.dir/methanol_113.chk
%nproc=8
%mem=16000MB
#p B2PLYPD3/Def2QZVP 

methanol

0 1
C  -5.183772  -1.263398   0.911525
O  -3.759035  -1.120960   0.865722
H  -5.528941  -2.178007   0.566106
H  -5.729738  -0.471127   0.335408
H  -5.469732  -1.162629   1.956641
H  -3.489085  -1.187567  -0.101306
