%chk=/home/boittier/MDCM/nms_sampling/methanol_geom.xyz.dir/methanol_2918.chk
%nproc=8
%mem=16000MB
#p B2PLYPD3/Def2QZVP 

methanol

0 1
C  -5.193034  -1.247405   0.896801
O  -3.748910  -1.120671   0.843302
H  -5.528603  -2.283886   0.507618
H  -5.819615  -0.488033   0.329796
H  -5.503267  -1.194805   2.172977
H  -3.427784  -1.219712   0.281728
