%chk=/home/boittier/MDCM/nms_sampling/methanol_geom.xyz.dir/methanol_3488.chk
%nproc=8
%mem=16000MB
#p B2PLYPD3/Def2QZVP 

methanol

0 1
C  -5.186767  -1.243479   0.931387
O  -3.771815  -1.131841   0.871175
H  -5.632401  -2.215459   0.544956
H  -5.594402  -0.624642   0.336345
H  -5.394036  -1.107933   1.875993
H  -3.369344  -1.103099  -0.324181

