%chk=/home/boittier/MDCM/nms_sampling/methanol_geom.xyz.dir/methanol_673.chk
%nproc=8
%mem=16000MB
#p B2PLYPD3/Def2QZVP 

methanol

0 1
C  -5.185372  -1.260129   0.919082
O  -3.762526  -1.121687   0.865117
H  -5.546132  -2.168396   0.552247
H  -5.643823  -0.489176   0.339667
H  -5.473657  -1.159731   1.939767
H  -3.481589  -1.206611  -0.154087
