%chk=/home/boittier/MDCM/nms_sampling/methanol_geom.xyz.dir/methanol_1987.chk
%nproc=8
%mem=16000MB
#p B2PLYPD3/Def2QZVP 

methanol

0 1
C  -5.190391  -1.253278   0.915988
O  -3.761935  -1.122083   0.872523
H  -5.434135  -2.203873   0.579862
H  -5.661260  -0.488260   0.335659
H  -5.463447  -1.190331   1.873737
H  -3.538774  -1.212077  -0.193775
