%chk=/home/boittier/MDCM/nms_sampling/methanol_geom.xyz.dir/methanol_1770.chk
%nproc=8
%mem=16000MB
#p B2PLYPD3/Def2QZVP 

methanol

0 1
C  -5.194116  -1.263400   0.914158
O  -3.758876  -1.117058   0.848082
H  -5.434662  -2.275026   0.562443
H  -5.742476  -0.384741   0.262565
H  -5.422284  -1.167300   2.003934
H  -3.503997  -1.229317   0.186529

