%chk=/home/boittier/MDCM/nms_sampling/methanol_geom.xyz.dir/methanol_237.chk
%nproc=8
%mem=16000MB
#p B2PLYPD3/Def2QZVP 

methanol

0 1
C  -5.180403  -1.261400   0.915362
O  -3.768032  -1.120657   0.852573
H  -5.510229  -2.220827   0.541724
H  -5.683296  -0.423307   0.319078
H  -5.432021  -1.178696   2.004177
H  -3.489426  -1.200967   0.061968
