%chk=/home/boittier/MDCM/nms_sampling/methanol_geom.xyz.dir/methanol_3428.chk
%nproc=8
%mem=16000MB
#p B2PLYPD3/Def2QZVP 

methanol

0 1
C  -5.170152  -1.243984   0.909020
O  -3.785739  -1.131677   0.842843
H  -5.336114  -2.332494   0.521293
H  -5.654104  -0.428236   0.299326
H  -5.494557  -1.104125   2.065037
H  -3.474055  -1.184622   0.274781
