%chk=/home/boittier/MDCM/nms_sampling/methanol_geom.xyz.dir/methanol_2552.chk
%nproc=8
%mem=16000MB
#p B2PLYPD3/Def2QZVP 

methanol

0 1
C  -5.167165  -1.269134   0.940605
O  -3.762247  -1.113467   0.865815
H  -5.695494  -2.225457   0.514489
H  -5.784683  -0.481611   0.309290
H  -5.375844  -1.166610   1.804426
H  -3.507887  -1.173591  -0.212459
