%chk=/home/boittier/MDCM/nms_sampling/methanol_geom.xyz.dir/methanol_1823.chk
%nproc=8
%mem=16000MB
#p B2PLYPD3/Def2QZVP 

methanol

0 1
C  -5.188847  -1.253638   0.923632
O  -3.756226  -1.127907   0.867741
H  -5.568980  -2.192162   0.588283
H  -5.669887  -0.453870   0.331296
H  -5.521321  -1.201287   1.863967
H  -3.439943  -1.158955  -0.198468
