%chk=/home/boittier/MDCM/nms_sampling/methanol_geom.xyz.dir/methanol_803.chk
%nproc=8
%mem=16000MB
#p B2PLYPD3/Def2QZVP 

methanol

0 1
C  -5.178232  -1.248603   0.909245
O  -3.770511  -1.125223   0.852845
H  -5.489021  -2.274029   0.545883
H  -5.685068  -0.474191   0.339673
H  -5.451952  -1.168267   2.027921
H  -3.479685  -1.181699   0.081136

