%chk=/home/boittier/MDCM/nms_sampling/methanol_geom.xyz.dir/methanol_2008.chk
%nproc=8
%mem=16000MB
#p B2PLYPD3/Def2QZVP 

methanol

0 1
C  -5.178616  -1.245045   0.923629
O  -3.765076  -1.127147   0.865434
H  -5.554071  -2.194685   0.553427
H  -5.607501  -0.541127   0.322789
H  -5.523765  -1.188804   1.929577
H  -3.499637  -1.188332  -0.187583

