%chk=/home/boittier/MDCM/nms_sampling/methanol_geom.xyz.dir/methanol_2407.chk
%nproc=8
%mem=16000MB
#p B2PLYPD3/Def2QZVP 

methanol

0 1
C  -5.209046  -1.279917   0.931520
O  -3.748621  -1.115149   0.822795
H  -5.524604  -2.255195   0.466934
H  -5.615318  -0.306309   0.238135
H  -5.410441  -1.125650   2.109071
H  -3.536239  -1.210800   0.407197
