%chk=/home/boittier/MDCM/nms_sampling/methanol_geom.xyz.dir/methanol_3471.chk
%nproc=8
%mem=16000MB
#p B2PLYPD3/Def2QZVP 

methanol

0 1
C  -5.168965  -1.230594   0.931196
O  -3.761207  -1.130510   0.875081
H  -5.612931  -2.309130   0.544161
H  -5.649051  -0.560174   0.423788
H  -5.593001  -1.190185   1.757166
H  -3.508874  -1.168264  -0.344884
