%chk=/home/boittier/MDCM/nms_sampling/methanol_geom.xyz.dir/methanol_1803.chk
%nproc=8
%mem=16000MB
#p B2PLYPD3/Def2QZVP 

methanol

0 1
C  -5.177818  -1.267582   0.915824
O  -3.765696  -1.122581   0.876261
H  -5.581379  -2.087839   0.575048
H  -5.658714  -0.507091   0.360451
H  -5.457826  -1.162044   1.909411
H  -3.479285  -1.169397  -0.311770
