%chk=/home/boittier/MDCM/nms_sampling/methanol_geom.xyz.dir/methanol_2622.chk
%nproc=8
%mem=16000MB
#p B2PLYPD3/Def2QZVP 

methanol

0 1
C  -5.175649  -1.256293   0.919483
O  -3.777101  -1.123621   0.851969
H  -5.534090  -2.240093   0.454316
H  -5.682762  -0.492327   0.361999
H  -5.422321  -1.103442   2.018544
H  -3.394845  -1.196334   0.050773
