%chk=/home/boittier/MDCM/nms_sampling/methanol_geom.xyz.dir/methanol_164.chk
%nproc=8
%mem=16000MB
#p B2PLYPD3/Def2QZVP 

methanol

0 1
C  -5.190875  -1.255691   0.913312
O  -3.761385  -1.120981   0.854005
H  -5.476877  -2.276625   0.516493
H  -5.730418  -0.450444   0.341778
H  -5.416890  -1.163479   1.988361
H  -3.479721  -1.191462   0.081756

