%chk=/home/boittier/MDCM/nms_sampling/methanol_geom.xyz.dir/methanol_324.chk
%nproc=8
%mem=16000MB
#p B2PLYPD3/Def2QZVP 

methanol

0 1
C  -5.181252  -1.250488   0.922274
O  -3.762574  -1.123478   0.850025
H  -5.538449  -2.290812   0.512983
H  -5.699746  -0.454509   0.322703
H  -5.476093  -1.171963   1.974656
H  -3.481954  -1.188464   0.077950

