%chk=/home/boittier/MDCM/nms_sampling/methanol_geom.xyz.dir/methanol_887.chk
%nproc=8
%mem=16000MB
#p B2PLYPD3/Def2QZVP 

methanol

0 1
C  -5.173351  -1.257849   0.915304
O  -3.768710  -1.119766   0.867992
H  -5.518342  -2.206589   0.540034
H  -5.730019  -0.481670   0.361923
H  -5.451908  -1.176620   1.910744
H  -3.488895  -1.213473  -0.135995

