%chk=/home/boittier/MDCM/nms_sampling/methanol_geom.xyz.dir/methanol_2786.chk
%nproc=8
%mem=16000MB
#p B2PLYPD3/Def2QZVP 

methanol

0 1
C  -5.170032  -1.236955   0.908218
O  -3.766017  -1.132225   0.843954
H  -5.348110  -2.313499   0.540167
H  -5.818076  -0.354686   0.248453
H  -5.635130  -1.262583   2.035848
H  -3.462075  -1.202748   0.327869
