%chk=/home/boittier/MDCM/nms_sampling/methanol_geom.xyz.dir/methanol_37.chk
%nproc=8
%mem=16000MB
#p B2PLYPD3/Def2QZVP 

methanol

0 1
C  -5.172461  -1.252792   0.913236
O  -3.773224  -1.121672   0.872004
H  -5.471468  -2.216816   0.565823
H  -5.695656  -0.520522   0.350765
H  -5.433506  -1.167788   1.900851
H  -3.529241  -1.199335  -0.182148

