%chk=/home/boittier/MDCM/nms_sampling/methanol_geom.xyz.dir/methanol_3352.chk
%nproc=8
%mem=16000MB
#p B2PLYPD3/Def2QZVP 

methanol

0 1
C  -5.187925  -1.274074   0.905093
O  -3.750707  -1.117713   0.829747
H  -5.520409  -2.197839   0.495566
H  -5.789604  -0.315583   0.268619
H  -5.463605  -1.234766   2.207670
H  -3.518384  -1.183080   0.443851
