%chk=/home/boittier/MDCM/nms_sampling/methanol_geom.xyz.dir/methanol_1420.chk
%nproc=8
%mem=16000MB
#p B2PLYPD3/Def2QZVP 

methanol

0 1
C  -5.189147  -1.248793   0.912815
O  -3.758424  -1.126169   0.844269
H  -5.549023  -2.267430   0.553904
H  -5.667249  -0.428857   0.317219
H  -5.515861  -1.196425   2.062709
H  -3.434842  -1.193525   0.159107

