%chk=/home/boittier/MDCM/nms_sampling/methanol_geom.xyz.dir/methanol_2510.chk
%nproc=8
%mem=16000MB
#p B2PLYPD3/Def2QZVP 

methanol

0 1
C  -5.178330  -1.234877   0.923136
O  -3.757681  -1.126721   0.862468
H  -5.618656  -2.236980   0.524110
H  -5.631715  -0.611743   0.337803
H  -5.537149  -1.207532   1.971790
H  -3.523517  -1.179620  -0.163076
