%chk=/home/boittier/MDCM/nms_sampling/methanol_geom.xyz.dir/methanol_1054.chk
%nproc=8
%mem=16000MB
#p B2PLYPD3/Def2QZVP 

methanol

0 1
C  -5.174690  -1.258427   0.910752
O  -3.772418  -1.121777   0.850996
H  -5.462674  -2.246232   0.557376
H  -5.671440  -0.438394   0.305863
H  -5.459059  -1.144889   2.033978
H  -3.520907  -1.210575   0.109310
