%chk=/home/boittier/MDCM/nms_sampling/methanol_geom.xyz.dir/methanol_2566.chk
%nproc=8
%mem=16000MB
#p B2PLYPD3/Def2QZVP 

methanol

0 1
C  -5.183719  -1.272901   0.921106
O  -3.773441  -1.122245   0.884214
H  -5.548588  -2.144246   0.664022
H  -5.642460  -0.494085   0.330972
H  -5.339427  -1.091041   1.778166
H  -3.459315  -1.135464  -0.425985
