%chk=/home/boittier/MDCM/nms_sampling/methanol_geom.xyz.dir/methanol_835.chk
%nproc=8
%mem=16000MB
#p B2PLYPD3/Def2QZVP 

methanol

0 1
C  -5.167327  -1.259789   0.912569
O  -3.772523  -1.122062   0.856505
H  -5.467069  -2.231442   0.541695
H  -5.719044  -0.415918   0.331889
H  -5.485260  -1.170515   1.975334
H  -3.523232  -1.204595   0.047784

