%chk=/home/boittier/MDCM/nms_sampling/methanol_geom.xyz.dir/methanol_1645.chk
%nproc=8
%mem=16000MB
#p B2PLYPD3/Def2QZVP 

methanol

0 1
C  -5.198127  -1.257865   0.923671
O  -3.756872  -1.119106   0.841631
H  -5.492802  -2.332789   0.484296
H  -5.722024  -0.411274   0.304300
H  -5.376891  -1.159839   1.998576
H  -3.500611  -1.180817   0.222046

