%chk=/home/boittier/MDCM/nms_sampling/methanol_geom.xyz.dir/methanol_427.chk
%nproc=8
%mem=16000MB
#p B2PLYPD3/Def2QZVP 

methanol

0 1
C  -5.176759  -1.247992   0.922729
O  -3.774190  -1.124696   0.849791
H  -5.487264  -2.295562   0.498277
H  -5.655577  -0.449567   0.335710
H  -5.448645  -1.167198   1.969684
H  -3.474115  -1.199629   0.083367
