%chk=/home/boittier/MDCM/nms_sampling/methanol_geom.xyz.dir/methanol_1013.chk
%nproc=8
%mem=16000MB
#p B2PLYPD3/Def2QZVP 

methanol

0 1
C  -5.183788  -1.261527   0.917092
O  -3.760802  -1.120105   0.850433
H  -5.551802  -2.236863   0.513528
H  -5.688771  -0.442418   0.339809
H  -5.451800  -1.157847   2.015559
H  -3.499590  -1.194593   0.072294
