%chk=/home/boittier/MDCM/nms_sampling/methanol_geom.xyz.dir/methanol_1046.chk
%nproc=8
%mem=16000MB
#p B2PLYPD3/Def2QZVP 

methanol

0 1
C  -5.175920  -1.255522   0.919944
O  -3.768508  -1.122072   0.854154
H  -5.558490  -2.263357   0.517006
H  -5.707313  -0.440049   0.357796
H  -5.444740  -1.173191   1.954758
H  -3.452362  -1.192263   0.019834
