%chk=/home/boittier/MDCM/nms_sampling/methanol_geom.xyz.dir/methanol_1459.chk
%nproc=8
%mem=16000MB
#p B2PLYPD3/Def2QZVP 

methanol

0 1
C  -5.194378  -1.260874   0.915545
O  -3.754483  -1.125551   0.846982
H  -5.544236  -2.209042   0.514362
H  -5.683233  -0.411140   0.324973
H  -5.498782  -1.170741   2.050908
H  -3.437445  -1.167560   0.124488
