%chk=/home/boittier/MDCM/nms_sampling/methanol_geom.xyz.dir/methanol_1850.chk
%nproc=8
%mem=16000MB
#p B2PLYPD3/Def2QZVP 

methanol

0 1
C  -5.179134  -1.261836   0.917278
O  -3.767849  -1.119106   0.847709
H  -5.516201  -2.250957   0.496998
H  -5.651229  -0.459762   0.335794
H  -5.420639  -1.130529   2.040605
H  -3.548759  -1.199130   0.108962
