%chk=/home/boittier/MDCM/nms_sampling/methanol_geom.xyz.dir/methanol_1888.chk
%nproc=8
%mem=16000MB
#p B2PLYPD3/Def2QZVP 

methanol

0 1
C  -5.160905  -1.243174   0.923508
O  -3.778171  -1.127412   0.872792
H  -5.544497  -2.208397   0.511004
H  -5.653948  -0.536104   0.398891
H  -5.490818  -1.206010   1.857332
H  -3.494484  -1.177140  -0.265108
