%chk=/home/boittier/MDCM/nms_sampling/methanol_geom.xyz.dir/methanol_699.chk
%nproc=8
%mem=16000MB
#p B2PLYPD3/Def2QZVP 

methanol

0 1
C  -5.190021  -1.258198   0.921233
O  -3.760360  -1.121188   0.860912
H  -5.537895  -2.233532   0.543053
H  -5.672999  -0.485094   0.331909
H  -5.433711  -1.143693   1.930783
H  -3.484586  -1.189096  -0.083336

