%chk=/home/boittier/MDCM/nms_sampling/methanol_geom.xyz.dir/methanol_2551.chk
%nproc=8
%mem=16000MB
#p B2PLYPD3/Def2QZVP 

methanol

0 1
C  -5.156138  -1.257496   0.914051
O  -3.776738  -1.131392   0.835469
H  -5.586479  -2.239973   0.536030
H  -5.610813  -0.359570   0.341858
H  -5.574491  -1.161906   2.106923
H  -3.478654  -1.148105   0.238075
