%chk=/home/boittier/MDCM/nms_sampling/methanol_geom.xyz.dir/methanol_3202.chk
%nproc=8
%mem=16000MB
#p B2PLYPD3/Def2QZVP 

methanol

0 1
C  -5.170046  -1.230972   0.937607
O  -3.789980  -1.131431   0.822693
H  -5.415220  -2.417564   0.396497
H  -5.577863  -0.389318   0.286830
H  -5.443356  -1.197527   2.042955
H  -3.459908  -1.193626   0.427734

