%chk=/home/boittier/MDCM/nms_sampling/methanol_geom.xyz.dir/methanol_1648.chk
%nproc=8
%mem=16000MB
#p B2PLYPD3/Def2QZVP 

methanol

0 1
C  -5.189580  -1.256430   0.910238
O  -3.761258  -1.118058   0.872716
H  -5.510572  -2.251103   0.591204
H  -5.705874  -0.528034   0.377555
H  -5.391912  -1.137548   1.890870
H  -3.516518  -1.200470  -0.198275

