%chk=/home/boittier/MDCM/nms_sampling/methanol_geom.xyz.dir/methanol_349.chk
%nproc=8
%mem=16000MB
#p B2PLYPD3/Def2QZVP 

methanol

0 1
C  -5.179200  -1.257741   0.906983
O  -3.769629  -1.120849   0.857004
H  -5.502894  -2.254203   0.561930
H  -5.709249  -0.475147   0.346236
H  -5.403614  -1.145064   2.013024
H  -3.493030  -1.185662   0.032400

