%chk=/home/boittier/MDCM/nms_sampling/methanol_geom.xyz.dir/methanol_2060.chk
%nproc=8
%mem=16000MB
#p B2PLYPD3/Def2QZVP 

methanol

0 1
C  -5.176580  -1.270205   0.917442
O  -3.765443  -1.120252   0.842042
H  -5.584885  -2.231139   0.538804
H  -5.664336  -0.370195   0.325473
H  -5.453675  -1.145969   2.047979
H  -3.494094  -1.184700   0.163505
