%chk=/home/boittier/MDCM/nms_sampling/methanol_geom.xyz.dir/methanol_434.chk
%nproc=8
%mem=16000MB
#p B2PLYPD3/Def2QZVP 

methanol

0 1
C  -5.172146  -1.252676   0.913249
O  -3.771794  -1.120689   0.855340
H  -5.474487  -2.275383   0.538287
H  -5.711349  -0.467835   0.326492
H  -5.441539  -1.168706   1.986424
H  -3.529588  -1.209453   0.055901

