%chk=/home/boittier/MDCM/nms_sampling/methanol_geom.xyz.dir/methanol_479.chk
%nproc=8
%mem=16000MB
#p B2PLYPD3/Def2QZVP 

methanol

0 1
C  -5.186519  -1.263978   0.919937
O  -3.758936  -1.119221   0.867914
H  -5.557903  -2.189387   0.562644
H  -5.675189  -0.455522   0.367117
H  -5.466569  -1.161174   1.881631
H  -3.488871  -1.212419  -0.185956
