%chk=/home/boittier/MDCM/nms_sampling/methanol_geom.xyz.dir/methanol_3594.chk
%nproc=8
%mem=16000MB
#p B2PLYPD3/Def2QZVP 

methanol

0 1
C  -5.210981  -1.258416   0.911950
O  -3.750890  -1.113844   0.891092
H  -5.433686  -2.189060   0.526155
H  -5.762760  -0.578346   0.421577
H  -5.348477  -1.158110   1.790938
H  -3.498162  -1.231185  -0.399635

