%chk=/home/boittier/MDCM/nms_sampling/methanol_geom.xyz.dir/methanol_1482.chk
%nproc=8
%mem=16000MB
#p B2PLYPD3/Def2QZVP 

methanol

0 1
C  -5.180298  -1.270636   0.907088
O  -3.766254  -1.120729   0.849252
H  -5.502126  -2.187262   0.537289
H  -5.731764  -0.388542   0.317770
H  -5.450093  -1.150514   2.071349
H  -3.456381  -1.193155   0.150386
