%chk=/home/boittier/MDCM/nms_sampling/methanol_geom.xyz.dir/methanol_1148.chk
%nproc=8
%mem=16000MB
#p B2PLYPD3/Def2QZVP 

methanol

0 1
C  -5.175075  -1.261073   0.910402
O  -3.767720  -1.122460   0.865180
H  -5.533650  -2.192449   0.582199
H  -5.714265  -0.463763   0.345316
H  -5.457821  -1.163599   1.952958
H  -3.475457  -1.181750  -0.100128
