%chk=/home/boittier/MDCM/nms_sampling/methanol_geom.xyz.dir/methanol_3505.chk
%nproc=8
%mem=16000MB
#p B2PLYPD3/Def2QZVP 

methanol

0 1
C  -5.164505  -1.241831   0.907835
O  -3.764593  -1.127322   0.901612
H  -5.474283  -2.163961   0.572547
H  -5.804889  -0.645503   0.411845
H  -5.588987  -1.147426   1.767421
H  -3.492403  -1.192298  -0.537209

