%chk=/home/boittier/MDCM/nms_sampling/methanol_geom.xyz.dir/methanol_974.chk
%nproc=8
%mem=16000MB
#p B2PLYPD3/Def2QZVP 

methanol

0 1
C  -5.183199  -1.256024   0.909865
O  -3.769413  -1.126285   0.855199
H  -5.477386  -2.238162   0.559501
H  -5.706430  -0.441812   0.319800
H  -5.441938  -1.154288   2.008086
H  -3.435517  -1.163848   0.061494

