%chk=/home/boittier/MDCM/nms_sampling/methanol_geom.xyz.dir/methanol_2692.chk
%nproc=8
%mem=16000MB
#p B2PLYPD3/Def2QZVP 

methanol

0 1
C  -5.176037  -1.228766   0.906319
O  -3.765794  -1.127634   0.895480
H  -5.484882  -2.237666   0.617051
H  -5.718194  -0.637325   0.433412
H  -5.554663  -1.190315   1.777132
H  -3.455948  -1.224395  -0.490887
