%chk=/home/boittier/MDCM/nms_sampling/methanol_geom.xyz.dir/methanol_220.chk
%nproc=8
%mem=16000MB
#p B2PLYPD3/Def2QZVP 

methanol

0 1
C  -5.183060  -1.252656   0.913804
O  -3.764600  -1.123794   0.854536
H  -5.504772  -2.253444   0.554742
H  -5.642935  -0.475839   0.333425
H  -5.483570  -1.148287   2.002877
H  -3.511148  -1.198046   0.022529

