%chk=/home/boittier/MDCM/nms_sampling/methanol_geom.xyz.dir/methanol_3332.chk
%nproc=8
%mem=16000MB
#p B2PLYPD3/Def2QZVP 

methanol

0 1
C  -5.183486  -1.252898   0.919303
O  -3.758471  -1.110688   0.888853
H  -5.660152  -2.168424   0.613397
H  -5.522808  -0.702870   0.427580
H  -5.456048  -1.100282   1.836644
H  -3.609999  -1.299417  -0.589012

