%chk=/home/boittier/MDCM/nms_sampling/methanol_geom.xyz.dir/methanol_781.chk
%nproc=8
%mem=16000MB
#p B2PLYPD3/Def2QZVP 

methanol

0 1
C  -5.174747  -1.256928   0.916232
O  -3.767814  -1.122206   0.866541
H  -5.580507  -2.197917   0.558698
H  -5.685279  -0.507064   0.361870
H  -5.449024  -1.162917   1.933232
H  -3.472031  -1.183549  -0.164742
