%chk=/home/boittier/MDCM/nms_sampling/methanol_geom.xyz.dir/methanol_211.chk
%nproc=8
%mem=16000MB
#p B2PLYPD3/Def2QZVP 

methanol

0 1
C  -5.176664  -1.257200   0.916848
O  -3.768754  -1.125233   0.870174
H  -5.560249  -2.165318   0.572670
H  -5.667782  -0.475530   0.367218
H  -5.469704  -1.188485   1.899163
H  -3.447074  -1.173913  -0.215412

