%chk=/home/boittier/MDCM/nms_sampling/methanol_geom.xyz.dir/methanol_3552.chk
%nproc=8
%mem=16000MB
#p B2PLYPD3/Def2QZVP 

methanol

0 1
C  -5.196917  -1.242754   0.895645
O  -3.762608  -1.126586   0.830948
H  -5.376337  -2.382883   0.481165
H  -5.642690  -0.433685   0.384827
H  -5.491074  -1.116368   2.199813
H  -3.509368  -1.208491   0.446091
