%chk=/home/boittier/MDCM/nms_sampling/methanol_geom.xyz.dir/methanol_2109.chk
%nproc=8
%mem=16000MB
#p B2PLYPD3/Def2QZVP 

methanol

0 1
C  -5.185623  -1.259992   0.912491
O  -3.772194  -1.128969   0.844675
H  -5.409482  -2.277611   0.525360
H  -5.711687  -0.349120   0.311743
H  -5.447230  -1.134923   2.019478
H  -3.417114  -1.149614   0.235188
