%chk=/home/boittier/MDCM/nms_sampling/methanol_geom.xyz.dir/methanol_3111.chk
%nproc=8
%mem=16000MB
#p B2PLYPD3/Def2QZVP 

methanol

0 1
C  -5.209829  -1.267321   0.916181
O  -3.755390  -1.130172   0.842523
H  -5.393052  -2.261454   0.505016
H  -5.735819  -0.318042   0.285934
H  -5.452631  -1.112445   2.016403
H  -3.385505  -1.119152   0.275237
