%chk=/home/boittier/MDCM/nms_sampling/methanol_geom.xyz.dir/methanol_908.chk
%nproc=8
%mem=16000MB
#p B2PLYPD3/Def2QZVP 

methanol

0 1
C  -5.183216  -1.261418   0.913421
O  -3.759537  -1.118549   0.867167
H  -5.519582  -2.213594   0.546694
H  -5.753923  -0.480546   0.353309
H  -5.456605  -1.153058   1.922743
H  -3.490322  -1.210116  -0.110568

