%chk=/home/boittier/MDCM/nms_sampling/methanol_geom.xyz.dir/methanol_3468.chk
%nproc=8
%mem=16000MB
#p B2PLYPD3/Def2QZVP 

methanol

0 1
C  -5.186857  -1.273566   0.929604
O  -3.771017  -1.110962   0.838364
H  -5.608385  -2.273256   0.488058
H  -5.663267  -0.462443   0.267068
H  -5.278237  -1.065906   2.055238
H  -3.454773  -1.224311   0.178108

