%chk=/home/boittier/MDCM/nms_sampling/methanol_geom.xyz.dir/methanol_737.chk
%nproc=8
%mem=16000MB
#p B2PLYPD3/Def2QZVP 

methanol

0 1
C  -5.185785  -1.256798   0.917446
O  -3.761036  -1.121031   0.860279
H  -5.562760  -2.236245   0.556024
H  -5.669254  -0.483072   0.352615
H  -5.442037  -1.160927   1.948503
H  -3.493232  -1.190262  -0.079067

