%chk=/home/boittier/MDCM/nms_sampling/methanol_geom.xyz.dir/methanol_91.chk
%nproc=8
%mem=16000MB
#p B2PLYPD3/Def2QZVP 

methanol

0 1
C  -5.177776  -1.259109   0.917485
O  -3.763947  -1.120228   0.861464
H  -5.532518  -2.179657   0.542456
H  -5.647261  -0.473812   0.340888
H  -5.500782  -1.178501   1.964878
H  -3.529870  -1.227204  -0.092271

