%chk=/home/boittier/MDCM/nms_sampling/methanol_geom.xyz.dir/methanol_1921.chk
%nproc=8
%mem=16000MB
#p B2PLYPD3/Def2QZVP 

methanol

0 1
C  -5.180364  -1.243338   0.920182
O  -3.766829  -1.126463   0.838818
H  -5.510237  -2.314060   0.503436
H  -5.623815  -0.461658   0.301475
H  -5.503817  -1.168448   2.071320
H  -3.502551  -1.196392   0.217522
