%chk=/home/boittier/MDCM/nms_sampling/methanol_geom.xyz.dir/methanol_205.chk
%nproc=8
%mem=16000MB
#p B2PLYPD3/Def2QZVP 

methanol

0 1
C  -5.174767  -1.260073   0.920216
O  -3.768623  -1.121012   0.870883
H  -5.557291  -2.195894   0.539790
H  -5.693349  -0.502825   0.374150
H  -5.432937  -1.149983   1.878064
H  -3.490292  -1.184170  -0.219844

