%chk=/home/boittier/MDCM/nms_sampling/methanol_geom.xyz.dir/methanol_1779.chk
%nproc=8
%mem=16000MB
#p B2PLYPD3/Def2QZVP 

methanol

0 1
C  -5.183165  -1.261093   0.909397
O  -3.755823  -1.118448   0.871100
H  -5.574926  -2.180768   0.535686
H  -5.756422  -0.522803   0.393840
H  -5.444024  -1.174045   1.944667
H  -3.503711  -1.185298  -0.180395
