%chk=/home/boittier/MDCM/nms_sampling/methanol_geom.xyz.dir/methanol_2924.chk
%nproc=8
%mem=16000MB
#p B2PLYPD3/Def2QZVP 

methanol

0 1
C  -5.146793  -1.244693   0.896734
O  -3.792236  -1.132809   0.885629
H  -5.491717  -2.060855   0.627289
H  -5.583207  -0.531256   0.436985
H  -5.600316  -1.221852   1.937916
H  -3.440450  -1.217944  -0.396088
