%chk=/home/boittier/MDCM/nms_sampling/methanol_geom.xyz.dir/methanol_1339.chk
%nproc=8
%mem=16000MB
#p B2PLYPD3/Def2QZVP 

methanol

0 1
C  -5.171714  -1.258236   0.904516
O  -3.770737  -1.126758   0.877778
H  -5.522494  -2.153098   0.617414
H  -5.729478  -0.485472   0.376952
H  -5.477029  -1.175451   1.902396
H  -3.440618  -1.154874  -0.251866
