%chk=/home/boittier/MDCM/nms_sampling/methanol_geom.xyz.dir/methanol_3444.chk
%nproc=8
%mem=16000MB
#p B2PLYPD3/Def2QZVP 

methanol

0 1
C  -5.201022  -1.242609   0.900433
O  -3.748656  -1.126625   0.892229
H  -5.581551  -2.131490   0.561583
H  -5.778082  -0.697008   0.415936
H  -5.454989  -1.174389   1.922526
H  -3.376925  -1.143803  -0.450196
