%chk=/home/boittier/MDCM/nms_sampling/methanol_geom.xyz.dir/methanol_1053.chk
%nproc=8
%mem=16000MB
#p B2PLYPD3/Def2QZVP 

methanol

0 1
C  -5.189304  -1.259042   0.919982
O  -3.760898  -1.122056   0.853301
H  -5.518654  -2.251475   0.546111
H  -5.672315  -0.411922   0.330162
H  -5.446361  -1.178022   1.953268
H  -3.487587  -1.188433   0.033834

