%chk=/home/boittier/MDCM/nms_sampling/methanol_geom.xyz.dir/methanol_1953.chk
%nproc=8
%mem=16000MB
#p B2PLYPD3/Def2QZVP 

methanol

0 1
C  -5.189299  -1.247170   0.916596
O  -3.764680  -1.125962   0.845031
H  -5.500245  -2.281857   0.567356
H  -5.569289  -0.449407   0.309704
H  -5.524015  -1.146490   2.040627
H  -3.476339  -1.227428   0.118970

