%chk=/home/boittier/MDCM/nms_sampling/methanol_geom.xyz.dir/methanol_2320.chk
%nproc=8
%mem=16000MB
#p B2PLYPD3/Def2QZVP 

methanol

0 1
C  -5.199893  -1.253460   0.915664
O  -3.755176  -1.125846   0.851115
H  -5.487933  -2.321492   0.546690
H  -5.724237  -0.429639   0.328104
H  -5.458982  -1.120408   1.966031
H  -3.426449  -1.162848   0.109813

