%chk=/home/boittier/MDCM/nms_sampling/methanol_geom.xyz.dir/methanol_2864.chk
%nproc=8
%mem=16000MB
#p B2PLYPD3/Def2QZVP 

methanol

0 1
C  -5.165505  -1.265543   0.898434
O  -3.769883  -1.113406   0.896118
H  -5.675260  -2.078373   0.662899
H  -5.719416  -0.630305   0.437700
H  -5.384164  -1.161499   1.881147
H  -3.485842  -1.217284  -0.566824
