%chk=/home/boittier/MDCM/nms_sampling/methanol_geom.xyz.dir/methanol_1789.chk
%nproc=8
%mem=16000MB
#p B2PLYPD3/Def2QZVP 

methanol

0 1
C  -5.198438  -1.255568   0.904135
O  -3.756339  -1.117905   0.845016
H  -5.494260  -2.328501   0.548749
H  -5.734871  -0.445212   0.339657
H  -5.394959  -1.145267   2.074553
H  -3.476498  -1.210624   0.220803

