%chk=/home/boittier/MDCM/nms_sampling/methanol_geom.xyz.dir/methanol_547.chk
%nproc=8
%mem=16000MB
#p B2PLYPD3/Def2QZVP 

methanol

0 1
C  -5.190260  -1.258386   0.907960
O  -3.759677  -1.117398   0.869042
H  -5.521496  -2.200862   0.567579
H  -5.715209  -0.530371   0.357195
H  -5.411597  -1.158313   1.962649
H  -3.491483  -1.217168  -0.143306
