%chk=/home/boittier/MDCM/nms_sampling/methanol_geom.xyz.dir/methanol_837.chk
%nproc=8
%mem=16000MB
#p B2PLYPD3/Def2QZVP 

methanol

0 1
C  -5.176748  -1.249325   0.911198
O  -3.765149  -1.124667   0.857821
H  -5.501973  -2.258719   0.552969
H  -5.693260  -0.462075   0.356311
H  -5.526949  -1.171370   1.977036
H  -3.484167  -1.210230   0.005659

