%chk=/home/boittier/MDCM/nms_sampling/methanol_geom.xyz.dir/methanol_3554.chk
%nproc=8
%mem=16000MB
#p B2PLYPD3/Def2QZVP 

methanol

0 1
C  -5.171799  -1.259747   0.900748
O  -3.760034  -1.120102   0.837365
H  -5.470095  -2.266758   0.493700
H  -5.733744  -0.359130   0.364214
H  -5.563381  -1.197533   2.144332
H  -3.571619  -1.233768   0.344640
