%chk=/home/boittier/MDCM/nms_sampling/methanol_geom.xyz.dir/methanol_1105.chk
%nproc=8
%mem=16000MB
#p B2PLYPD3/Def2QZVP 

methanol

0 1
C  -5.184902  -1.263769   0.910765
O  -3.759986  -1.120315   0.871140
H  -5.511362  -2.176774   0.576543
H  -5.710233  -0.456942   0.374842
H  -5.477414  -1.163450   1.904563
H  -3.490403  -1.207431  -0.175899

