%chk=/home/boittier/MDCM/nms_sampling/methanol_geom.xyz.dir/methanol_1816.chk
%nproc=8
%mem=16000MB
#p B2PLYPD3/Def2QZVP 

methanol

0 1
C  -5.166095  -1.257436   0.922337
O  -3.776152  -1.118080   0.865854
H  -5.589337  -2.204638   0.537136
H  -5.635109  -0.549893   0.353561
H  -5.423800  -1.126281   1.930343
H  -3.512686  -1.224992  -0.194058
