%chk=/home/boittier/MDCM/nms_sampling/methanol_geom.xyz.dir/methanol_3148.chk
%nproc=8
%mem=16000MB
#p B2PLYPD3/Def2QZVP 

methanol

0 1
C  -5.193354  -1.266491   0.919446
O  -3.764978  -1.117723   0.885363
H  -5.648300  -2.098176   0.697139
H  -5.532480  -0.584126   0.338038
H  -5.332550  -1.144326   1.840780
H  -3.502751  -1.180671  -0.531050
