%chk=/home/boittier/MDCM/nms_sampling/methanol_geom.xyz.dir/methanol_2294.chk
%nproc=8
%mem=16000MB
#p B2PLYPD3/Def2QZVP 

methanol

0 1
C  -5.165325  -1.256628   0.910774
O  -3.774697  -1.119637   0.845840
H  -5.421438  -2.276822   0.542415
H  -5.740073  -0.377184   0.285925
H  -5.478886  -1.202753   2.033607
H  -3.544583  -1.238691   0.229633

