%chk=/home/boittier/MDCM/nms_sampling/methanol_geom.xyz.dir/methanol_3394.chk
%nproc=8
%mem=16000MB
#p B2PLYPD3/Def2QZVP 

methanol

0 1
C  -5.187062  -1.246505   0.899982
O  -3.756046  -1.126745   0.869969
H  -5.505554  -2.163343   0.634282
H  -5.693413  -0.475931   0.353392
H  -5.595577  -1.237731   1.978875
H  -3.430761  -1.230916  -0.141911
