%chk=/home/boittier/MDCM/nms_sampling/methanol_geom.xyz.dir/methanol_2624.chk
%nproc=8
%mem=16000MB
#p B2PLYPD3/Def2QZVP 

methanol

0 1
C  -5.222111  -1.257931   0.927903
O  -3.749162  -1.131742   0.830226
H  -5.480002  -2.282520   0.485605
H  -5.587368  -0.344916   0.274262
H  -5.481596  -1.127677   2.066013
H  -3.377381  -1.138661   0.318593

