%chk=/home/boittier/MDCM/nms_sampling/methanol_geom.xyz.dir/methanol_2117.chk
%nproc=8
%mem=16000MB
#p B2PLYPD3/Def2QZVP 

methanol

0 1
C  -5.190964  -1.267111   0.905126
O  -3.757965  -1.121342   0.845504
H  -5.480821  -2.228073   0.555369
H  -5.731051  -0.401957   0.291121
H  -5.447733  -1.143301   2.098618
H  -3.490216  -1.176828   0.215850

