%chk=/home/boittier/MDCM/nms_sampling/methanol_geom.xyz.dir/methanol_1276.chk
%nproc=8
%mem=16000MB
#p B2PLYPD3/Def2QZVP 

methanol

0 1
C  -5.178632  -1.254299   0.921771
O  -3.762257  -1.124851   0.841634
H  -5.530309  -2.253257   0.502654
H  -5.658080  -0.402135   0.304797
H  -5.541610  -1.186060   2.041029
H  -3.495483  -1.203352   0.181197
