%chk=/home/boittier/MDCM/nms_sampling/methanol_geom.xyz.dir/methanol_1222.chk
%nproc=8
%mem=16000MB
#p B2PLYPD3/Def2QZVP 

methanol

0 1
C  -5.172871  -1.257458   0.902359
O  -3.763268  -1.119438   0.853226
H  -5.490910  -2.224868   0.556923
H  -5.714296  -0.428336   0.352651
H  -5.511173  -1.209499   2.057376
H  -3.560847  -1.228710   0.102264

