%chk=/home/boittier/MDCM/nms_sampling/methanol_geom.xyz.dir/methanol_368.chk
%nproc=8
%mem=16000MB
#p B2PLYPD3/Def2QZVP 

methanol

0 1
C  -5.175436  -1.254484   0.911384
O  -3.766329  -1.119989   0.851633
H  -5.485827  -2.297121   0.542292
H  -5.726388  -0.432548   0.340388
H  -5.459796  -1.171663   1.995379
H  -3.532350  -1.211773   0.113333

