%chk=/home/boittier/MDCM/nms_sampling/methanol_geom.xyz.dir/methanol_1447.chk
%nproc=8
%mem=16000MB
#p B2PLYPD3/Def2QZVP 

methanol

0 1
C  -5.188206  -1.266523   0.907751
O  -3.763345  -1.117459   0.856873
H  -5.477002  -2.187253   0.560920
H  -5.707020  -0.435185   0.313650
H  -5.420884  -1.167790   2.027292
H  -3.494109  -1.224290   0.042847

