%chk=/home/boittier/MDCM/nms_sampling/methanol_geom.xyz.dir/methanol_1427.chk
%nproc=8
%mem=16000MB
#p B2PLYPD3/Def2QZVP 

methanol

0 1
C  -5.170808  -1.258168   0.924100
O  -3.771652  -1.124090   0.850474
H  -5.534835  -2.250986   0.482760
H  -5.705513  -0.410452   0.343894
H  -5.477747  -1.160497   1.960944
H  -3.451113  -1.187028   0.071986

