%chk=/home/boittier/MDCM/nms_sampling/methanol_geom.xyz.dir/methanol_938.chk
%nproc=8
%mem=16000MB
#p B2PLYPD3/Def2QZVP 

methanol

0 1
C  -5.184592  -1.253831   0.912255
O  -3.762853  -1.123440   0.851980
H  -5.474127  -2.296457   0.546974
H  -5.709733  -0.432242   0.335642
H  -5.476712  -1.145610   1.988513
H  -3.491916  -1.193456   0.104500

