%chk=/home/boittier/MDCM/nms_sampling/methanol_geom.xyz.dir/methanol_1523.chk
%nproc=8
%mem=16000MB
#p B2PLYPD3/Def2QZVP 

methanol

0 1
C  -5.196095  -1.259537   0.920175
O  -3.756186  -1.115608   0.842120
H  -5.539970  -2.340045   0.505764
H  -5.708326  -0.397840   0.348722
H  -5.394339  -1.157035   1.994474
H  -3.486248  -1.225127   0.196032

