%chk=/home/boittier/MDCM/nms_sampling/methanol_geom.xyz.dir/methanol_3324.chk
%nproc=8
%mem=16000MB
#p B2PLYPD3/Def2QZVP 

methanol

0 1
C  -5.215147  -1.241241   0.910980
O  -3.753761  -1.123088   0.852121
H  -5.396278  -2.384046   0.519715
H  -5.825193  -0.491646   0.289723
H  -5.375032  -1.138708   1.986904
H  -3.357870  -1.195864   0.190056

