%chk=/home/boittier/MDCM/nms_sampling/methanol_geom.xyz.dir/methanol_3367.chk
%nproc=8
%mem=16000MB
#p B2PLYPD3/Def2QZVP 

methanol

0 1
C  -5.172371  -1.243010   0.892748
O  -3.763676  -1.119867   0.843359
H  -5.442052  -2.346128   0.516676
H  -5.731859  -0.492717   0.378930
H  -5.569102  -1.129016   2.157446
H  -3.547498  -1.279098   0.289213

