%chk=/home/boittier/MDCM/nms_sampling/methanol_geom.xyz.dir/methanol_1996.chk
%nproc=8
%mem=16000MB
#p B2PLYPD3/Def2QZVP 

methanol

0 1
C  -5.166970  -1.256583   0.904319
O  -3.769754  -1.121492   0.846920
H  -5.493049  -2.263768   0.570667
H  -5.711680  -0.418602   0.317552
H  -5.490593  -1.181662   2.077200
H  -3.548683  -1.204475   0.184086

