%chk=/home/boittier/MDCM/nms_sampling/methanol_geom.xyz.dir/methanol_1335.chk
%nproc=8
%mem=16000MB
#p B2PLYPD3/Def2QZVP 

methanol

0 1
C  -5.194793  -1.251488   0.921870
O  -3.758839  -1.124834   0.874907
H  -5.577327  -2.222546   0.579554
H  -5.656995  -0.546823   0.370853
H  -5.429106  -1.141587   1.842166
H  -3.436499  -1.160201  -0.304140

