%chk=/home/boittier/MDCM/nms_sampling/methanol_geom.xyz.dir/methanol_2958.chk
%nproc=8
%mem=16000MB
#p B2PLYPD3/Def2QZVP 

methanol

0 1
C  -5.146250  -1.238078   0.927291
O  -3.779423  -1.131302   0.849479
H  -5.572543  -2.348914   0.516454
H  -5.660994  -0.436881   0.371663
H  -5.585570  -1.179235   1.911603
H  -3.514693  -1.165039   0.043468

