%chk=/home/boittier/MDCM/nms_sampling/methanol_geom.xyz.dir/methanol_2833.chk
%nproc=8
%mem=16000MB
#p B2PLYPD3/Def2QZVP 

methanol

0 1
C  -5.192277  -1.259459   0.904184
O  -3.772440  -1.125501   0.901248
H  -5.494906  -2.070235   0.538068
H  -5.696713  -0.671802   0.455723
H  -5.320942  -1.098740   1.847121
H  -3.400861  -1.122470  -0.581504
