%chk=/home/boittier/MDCM/nms_sampling/methanol_geom.xyz.dir/methanol_1511.chk
%nproc=8
%mem=16000MB
#p B2PLYPD3/Def2QZVP 

methanol

0 1
C  -5.169570  -1.241084   0.910440
O  -3.777776  -1.125569   0.859791
H  -5.435701  -2.280762   0.541112
H  -5.700722  -0.499872   0.338555
H  -5.475396  -1.183337   1.975522
H  -3.482240  -1.214010   0.012049
