%chk=/home/boittier/MDCM/nms_sampling/methanol_geom.xyz.dir/methanol_976.chk
%nproc=8
%mem=16000MB
#p B2PLYPD3/Def2QZVP 

methanol

0 1
C  -5.182481  -1.255763   0.915563
O  -3.768018  -1.123723   0.852299
H  -5.524510  -2.266122   0.546761
H  -5.669085  -0.459027   0.331426
H  -5.435167  -1.135897   1.998888
H  -3.466569  -1.178419   0.052935

