%chk=/home/boittier/MDCM/nms_sampling/methanol_geom.xyz.dir/methanol_2081.chk
%nproc=8
%mem=16000MB
#p B2PLYPD3/Def2QZVP 

methanol

0 1
C  -5.187968  -1.253574   0.903312
O  -3.757250  -1.123958   0.851981
H  -5.508762  -2.236625   0.496013
H  -5.760145  -0.469491   0.367715
H  -5.501656  -1.165169   2.082287
H  -3.430481  -1.193291   0.129709

