%chk=/home/boittier/MDCM/nms_sampling/methanol_geom.xyz.dir/methanol_2277.chk
%nproc=8
%mem=16000MB
#p B2PLYPD3/Def2QZVP 

methanol

0 1
C  -5.187549  -1.254757   0.913739
O  -3.763232  -1.122434   0.850263
H  -5.488550  -2.312795   0.511613
H  -5.779143  -0.447853   0.323756
H  -5.427355  -1.125311   1.999783
H  -3.420706  -1.184497   0.149380

