%chk=/home/boittier/MDCM/nms_sampling/methanol_geom.xyz.dir/methanol_3074.chk
%nproc=8
%mem=16000MB
#p B2PLYPD3/Def2QZVP 

methanol

0 1
C  -5.171919  -1.242430   0.930937
O  -3.788887  -1.135733   0.890340
H  -5.478697  -2.136528   0.631267
H  -5.457138  -0.532066   0.382819
H  -5.471882  -1.190653   1.701449
H  -3.472295  -1.146292  -0.582737
