%chk=/home/boittier/MDCM/nms_sampling/methanol_geom.xyz.dir/methanol_1104.chk
%nproc=8
%mem=16000MB
#p B2PLYPD3/Def2QZVP 

methanol

0 1
C  -5.183172  -1.258384   0.921605
O  -3.764887  -1.120516   0.865748
H  -5.527852  -2.216564   0.567499
H  -5.668895  -0.483977   0.325620
H  -5.432484  -1.161548   1.895599
H  -3.506549  -1.197811  -0.148906

