%chk=/home/boittier/MDCM/nms_sampling/methanol_geom.xyz.dir/methanol_90.chk
%nproc=8
%mem=16000MB
#p B2PLYPD3/Def2QZVP 

methanol

0 1
C  -5.178532  -1.255332   0.906512
O  -3.768594  -1.124066   0.855850
H  -5.521875  -2.247278   0.543242
H  -5.722963  -0.470400   0.360974
H  -5.452014  -1.141580   2.026217
H  -3.434952  -1.180850   0.047140

