%chk=/home/boittier/MDCM/nms_sampling/methanol_geom.xyz.dir/methanol_3025.chk
%nproc=8
%mem=16000MB
#p B2PLYPD3/Def2QZVP 

methanol

0 1
C  -5.146021  -1.244108   0.901211
O  -3.787881  -1.131610   0.890614
H  -5.498721  -2.118740   0.641889
H  -5.666569  -0.552169   0.415809
H  -5.600673  -1.176751   1.857733
H  -3.432537  -1.209641  -0.441261
