%chk=/home/boittier/MDCM/nms_sampling/methanol_geom.xyz.dir/methanol_1129.chk
%nproc=8
%mem=16000MB
#p B2PLYPD3/Def2QZVP 

methanol

0 1
C  -5.177032  -1.249720   0.918864
O  -3.770114  -1.123329   0.868134
H  -5.536022  -2.212581   0.540252
H  -5.633254  -0.540402   0.369291
H  -5.457506  -1.161742   1.917931
H  -3.500328  -1.199611  -0.195860

