%chk=/home/boittier/MDCM/nms_sampling/methanol_geom.xyz.dir/methanol_805.chk
%nproc=8
%mem=16000MB
#p B2PLYPD3/Def2QZVP 

methanol

0 1
C  -5.178367  -1.253018   0.911587
O  -3.769966  -1.123040   0.872977
H  -5.513129  -2.208634   0.568048
H  -5.715746  -0.520874   0.369853
H  -5.436871  -1.160057   1.902993
H  -3.447394  -1.191857  -0.201724
