%chk=/home/boittier/MDCM/nms_sampling/methanol_geom.xyz.dir/methanol_3313.chk
%nproc=8
%mem=16000MB
#p B2PLYPD3/Def2QZVP 

methanol

0 1
C  -5.196067  -1.229926   0.934435
O  -3.762211  -1.129803   0.829472
H  -5.440745  -2.424203   0.418797
H  -5.562182  -0.444391   0.319179
H  -5.495738  -1.183056   2.021649
H  -3.537391  -1.186648   0.321731

