%chk=/home/boittier/MDCM/nms_sampling/methanol_geom.xyz.dir/methanol_2928.chk
%nproc=8
%mem=16000MB
#p B2PLYPD3/Def2QZVP 

methanol

0 1
C  -5.185103  -1.236496   0.927263
O  -3.768003  -1.133026   0.881311
H  -5.478361  -2.212495   0.670359
H  -5.510160  -0.522400   0.327487
H  -5.548567  -1.208115   1.751771
H  -3.523903  -1.176900  -0.425516

