%chk=/home/boittier/MDCM/nms_sampling/methanol_geom.xyz.dir/methanol_2920.chk
%nproc=8
%mem=16000MB
#p B2PLYPD3/Def2QZVP 

methanol

0 1
C  -5.184762  -1.260529   0.918773
O  -3.763816  -1.123994   0.891761
H  -5.625322  -2.122516   0.560732
H  -5.692762  -0.547502   0.465727
H  -5.460142  -1.132283   1.762246
H  -3.355404  -1.180623  -0.538098
