%chk=/home/boittier/MDCM/nms_sampling/methanol_geom.xyz.dir/methanol_25.chk
%nproc=8
%mem=16000MB
#p B2PLYPD3/Def2QZVP 

methanol

0 1
C  -5.186518  -1.260528   0.917462
O  -3.761641  -1.120279   0.869562
H  -5.568915  -2.196585   0.554588
H  -5.653660  -0.512763   0.385737
H  -5.429934  -1.139992   1.904121
H  -3.496654  -1.189266  -0.218193

