%chk=/home/boittier/MDCM/nms_sampling/methanol_geom.xyz.dir/methanol_661.chk
%nproc=8
%mem=16000MB
#p B2PLYPD3/Def2QZVP 

methanol

0 1
C  -5.173659  -1.253209   0.915960
O  -3.769736  -1.124975   0.851710
H  -5.509348  -2.256118   0.540222
H  -5.672192  -0.417204   0.341979
H  -5.492360  -1.188673   1.985457
H  -3.492084  -1.190590   0.068467
