%chk=/home/boittier/MDCM/nms_sampling/methanol_geom.xyz.dir/methanol_1036.chk
%nproc=8
%mem=16000MB
#p B2PLYPD3/Def2QZVP 

methanol

0 1
C  -5.194259  -1.256662   0.912313
O  -3.760337  -1.123869   0.853627
H  -5.474937  -2.258157   0.557821
H  -5.696121  -0.412978   0.331368
H  -5.452101  -1.170716   1.983640
H  -3.453811  -1.186932   0.075040
