%chk=/home/boittier/MDCM/nms_sampling/methanol_geom.xyz.dir/methanol_3519.chk
%nproc=8
%mem=16000MB
#p B2PLYPD3/Def2QZVP 

methanol

0 1
C  -5.177738  -1.250637   0.903245
O  -3.767618  -1.115116   0.854688
H  -5.391627  -2.406540   0.553228
H  -5.755422  -0.453900   0.385585
H  -5.449841  -1.093389   1.960139
H  -3.572379  -1.273533   0.142354
