%chk=/home/boittier/MDCM/nms_sampling/methanol_geom.xyz.dir/methanol_2925.chk
%nproc=8
%mem=16000MB
#p B2PLYPD3/Def2QZVP 

methanol

0 1
C  -5.199620  -1.280843   0.890506
O  -3.762776  -1.119449   0.856758
H  -5.446446  -2.151894   0.626802
H  -5.695748  -0.375167   0.345794
H  -5.366535  -1.119378   2.089466
H  -3.460373  -1.173003   0.089277

