%chk=/home/boittier/MDCM/nms_sampling/methanol_geom.xyz.dir/methanol_115.chk
%nproc=8
%mem=16000MB
#p B2PLYPD3/Def2QZVP 

methanol

0 1
C  -5.192897  -1.254090   0.916170
O  -3.761692  -1.123491   0.869772
H  -5.521747  -2.172499   0.556933
H  -5.636201  -0.521584   0.356599
H  -5.457432  -1.168695   1.927845
H  -3.457969  -1.200433  -0.205554

