%chk=/home/boittier/MDCM/nms_sampling/methanol_geom.xyz.dir/methanol_3490.chk
%nproc=8
%mem=16000MB
#p B2PLYPD3/Def2QZVP 

methanol

0 1
C  -5.188251  -1.262333   0.919763
O  -3.760276  -1.114029   0.824754
H  -5.450367  -2.314313   0.538888
H  -5.641951  -0.357729   0.196697
H  -5.463508  -1.164621   2.143094
H  -3.594981  -1.279333   0.448881
