%chk=/home/boittier/MDCM/nms_sampling/methanol_geom.xyz.dir/methanol_369.chk
%nproc=8
%mem=16000MB
#p B2PLYPD3/Def2QZVP 

methanol

0 1
C  -5.173278  -1.255581   0.908933
O  -3.769774  -1.122143   0.856407
H  -5.481987  -2.221371   0.534715
H  -5.694040  -0.453073   0.349335
H  -5.493521  -1.174134   2.016291
H  -3.502104  -1.220066   0.039063

