%chk=/home/boittier/MDCM/nms_sampling/methanol_geom.xyz.dir/methanol_2184.chk
%nproc=8
%mem=16000MB
#p B2PLYPD3/Def2QZVP 

methanol

0 1
C  -5.186648  -1.249825   0.925861
O  -3.763708  -1.119657   0.844212
H  -5.484684  -2.345365   0.505752
H  -5.639398  -0.419687   0.328958
H  -5.432450  -1.183828   1.960128
H  -3.561839  -1.219662   0.148886
