%chk=/home/boittier/MDCM/nms_sampling/methanol_geom.xyz.dir/methanol_2727.chk
%nproc=8
%mem=16000MB
#p B2PLYPD3/Def2QZVP 

methanol

0 1
C  -5.145743  -1.251612   0.887786
O  -3.788660  -1.132320   0.901031
H  -5.478188  -2.013529   0.651280
H  -5.637467  -0.586242   0.469245
H  -5.586662  -1.180681   1.901004
H  -3.481041  -1.180419  -0.562494
