%chk=/home/boittier/MDCM/nms_sampling/methanol_geom.xyz.dir/methanol_2393.chk
%nproc=8
%mem=16000MB
#p B2PLYPD3/Def2QZVP 

methanol

0 1
C  -5.200500  -1.261596   0.900918
O  -3.757398  -1.122429   0.846624
H  -5.477467  -2.242090   0.558739
H  -5.698675  -0.405309   0.339468
H  -5.407697  -1.176199   2.099271
H  -3.465685  -1.170009   0.196453
