%chk=/home/boittier/MDCM/nms_sampling/methanol_geom.xyz.dir/methanol_1985.chk
%nproc=8
%mem=16000MB
#p B2PLYPD3/Def2QZVP 

methanol

0 1
C  -5.171021  -1.256244   0.909700
O  -3.771454  -1.125617   0.871809
H  -5.528196  -2.122525   0.554243
H  -5.675574  -0.508357   0.369016
H  -5.521573  -1.175698   1.959950
H  -3.442418  -1.202967  -0.206063

