%chk=/home/boittier/MDCM/nms_sampling/methanol_geom.xyz.dir/methanol_2167.chk
%nproc=8
%mem=16000MB
#p B2PLYPD3/Def2QZVP 

methanol

0 1
C  -5.170953  -1.262884   0.921006
O  -3.767969  -1.118672   0.844461
H  -5.608837  -2.231397   0.497038
H  -5.689989  -0.427039   0.328887
H  -5.420341  -1.191978   2.043167
H  -3.506710  -1.187598   0.122799
