%chk=/home/boittier/MDCM/nms_sampling/methanol_geom.xyz.dir/methanol_3253.chk
%nproc=8
%mem=16000MB
#p B2PLYPD3/Def2QZVP 

methanol

0 1
C  -5.140189  -1.255465   0.912070
O  -3.785625  -1.121839   0.841421
H  -5.389820  -2.283801   0.484900
H  -5.811415  -0.322355   0.291807
H  -5.501642  -1.261292   2.037746
H  -3.594550  -1.209559   0.333842

