%chk=/home/boittier/MDCM/nms_sampling/methanol_geom.xyz.dir/methanol_2172.chk
%nproc=8
%mem=16000MB
#p B2PLYPD3/Def2QZVP 

methanol

0 1
C  -5.174741  -1.258847   0.916275
O  -3.768638  -1.125350   0.872014
H  -5.566274  -2.156256   0.528639
H  -5.695781  -0.516316   0.385210
H  -5.462705  -1.151870   1.914497
H  -3.446033  -1.157252  -0.230446
