%chk=/home/boittier/MDCM/nms_sampling/methanol_geom.xyz.dir/methanol_2817.chk
%nproc=8
%mem=16000MB
#p B2PLYPD3/Def2QZVP 

methanol

0 1
C  -5.174180  -1.257890   0.924365
O  -3.776343  -1.126227   0.876073
H  -5.654794  -2.087594   0.589324
H  -5.571379  -0.481448   0.395838
H  -5.456226  -1.222578   1.851808
H  -3.368251  -1.188029  -0.397411

