%chk=/home/boittier/MDCM/nms_sampling/methanol_geom.xyz.dir/methanol_2110.chk
%nproc=8
%mem=16000MB
#p B2PLYPD3/Def2QZVP 

methanol

0 1
C  -5.184891  -1.271739   0.904686
O  -3.767223  -1.118521   0.844954
H  -5.481754  -2.232197   0.568186
H  -5.703406  -0.362921   0.317884
H  -5.415400  -1.133837   2.079630
H  -3.473819  -1.209535   0.212123

