%chk=/home/boittier/MDCM/nms_sampling/methanol_geom.xyz.dir/methanol_3338.chk
%nproc=8
%mem=16000MB
#p B2PLYPD3/Def2QZVP 

methanol

0 1
C  -5.198488  -1.258262   0.928978
O  -3.742799  -1.113374   0.881599
H  -5.735778  -2.125729   0.545612
H  -5.700085  -0.637207   0.355910
H  -5.429808  -1.183058   1.851688
H  -3.448617  -1.227542  -0.463719

