%chk=/home/boittier/MDCM/nms_sampling/methanol_geom.xyz.dir/methanol_453.chk
%nproc=8
%mem=16000MB
#p B2PLYPD3/Def2QZVP 

methanol

0 1
C  -5.183905  -1.257552   0.910152
O  -3.768167  -1.124868   0.871305
H  -5.512866  -2.180181   0.601175
H  -5.660597  -0.502009   0.355172
H  -5.441907  -1.147205   1.926508
H  -3.457933  -1.173057  -0.199518
