%chk=/home/boittier/MDCM/nms_sampling/methanol_geom.xyz.dir/methanol_3124.chk
%nproc=8
%mem=16000MB
#p B2PLYPD3/Def2QZVP 

methanol

0 1
C  -5.164769  -1.259011   0.922839
O  -3.761222  -1.118468   0.827046
H  -5.586138  -2.282107   0.509686
H  -5.625509  -0.315575   0.308278
H  -5.535376  -1.274400   2.096124
H  -3.650558  -1.219796   0.343874
