%chk=/home/boittier/MDCM/nms_sampling/methanol_geom.xyz.dir/methanol_2907.chk
%nproc=8
%mem=16000MB
#p B2PLYPD3/Def2QZVP 

methanol

0 1
C  -5.186984  -1.249599   0.913910
O  -3.760612  -1.110032   0.891519
H  -5.529770  -2.203968   0.596806
H  -5.579793  -0.676672   0.434053
H  -5.425831  -1.126519   1.811188
H  -3.640112  -1.309103  -0.532379
