%chk=/home/boittier/MDCM/nms_sampling/methanol_geom.xyz.dir/methanol_3496.chk
%nproc=8
%mem=16000MB
#p B2PLYPD3/Def2QZVP 

methanol

0 1
C  -5.155755  -1.261095   0.887225
O  -3.765705  -1.120384   0.845045
H  -5.477628  -2.245362   0.580788
H  -5.762294  -0.412812   0.346096
H  -5.587792  -1.157462   2.177693
H  -3.608062  -1.223580   0.275004
