%chk=/home/boittier/MDCM/nms_sampling/methanol_geom.xyz.dir/methanol_1284.chk
%nproc=8
%mem=16000MB
#p B2PLYPD3/Def2QZVP 

methanol

0 1
C  -5.183638  -1.246181   0.917082
O  -3.767767  -1.122339   0.851240
H  -5.532247  -2.282407   0.515842
H  -5.584168  -0.500330   0.378714
H  -5.472977  -1.152794   2.011007
H  -3.501752  -1.233309   0.023759
