%chk=/home/boittier/MDCM/nms_sampling/methanol_geom.xyz.dir/methanol_3079.chk
%nproc=8
%mem=16000MB
#p B2PLYPD3/Def2QZVP 

methanol

0 1
C  -5.195745  -1.229562   0.906268
O  -3.764823  -1.128963   0.871184
H  -5.431489  -2.236138   0.489409
H  -5.629771  -0.649763   0.405332
H  -5.444913  -1.190405   1.998475
H  -3.494227  -1.177006  -0.167986

