%chk=/home/boittier/MDCM/nms_sampling/methanol_geom.xyz.dir/methanol_79.chk
%nproc=8
%mem=16000MB
#p B2PLYPD3/Def2QZVP 

methanol

0 1
C  -5.181593  -1.257755   0.918350
O  -3.762889  -1.121528   0.870076
H  -5.538560  -2.201198   0.528922
H  -5.719332  -0.493459   0.375892
H  -5.469931  -1.156752   1.887283
H  -3.457997  -1.201534  -0.185027
