%chk=/home/boittier/MDCM/nms_sampling/methanol_geom.xyz.dir/methanol_3337.chk
%nproc=8
%mem=16000MB
#p B2PLYPD3/Def2QZVP 

methanol

0 1
C  -5.185228  -1.246714   0.919605
O  -3.756520  -1.127887   0.825402
H  -5.498679  -2.385388   0.538812
H  -5.663235  -0.312080   0.287170
H  -5.630684  -1.157681   2.071012
H  -3.450191  -1.232175   0.428941
