%chk=/home/boittier/MDCM/nms_sampling/methanol_geom.xyz.dir/methanol_3451.chk
%nproc=8
%mem=16000MB
#p B2PLYPD3/Def2QZVP 

methanol

0 1
C  -5.171007  -1.260681   0.900269
O  -3.756327  -1.110502   0.831422
H  -5.488725  -2.328537   0.419317
H  -5.815103  -0.414678   0.372686
H  -5.513947  -1.157290   2.198746
H  -3.600714  -1.290032   0.455892
