%chk=/home/boittier/MDCM/nms_sampling/methanol_geom.xyz.dir/methanol_1426.chk
%nproc=8
%mem=16000MB
#p B2PLYPD3/Def2QZVP 

methanol

0 1
C  -5.175116  -1.242177   0.922499
O  -3.780285  -1.126627   0.845189
H  -5.487930  -2.276793   0.486744
H  -5.593313  -0.475400   0.321904
H  -5.445522  -1.187475   2.033230
H  -3.461990  -1.207477   0.120119
