%chk=/home/boittier/MDCM/nms_sampling/methanol_geom.xyz.dir/methanol_1245.chk
%nproc=8
%mem=16000MB
#p B2PLYPD3/Def2QZVP 

methanol

0 1
C  -5.177959  -1.264136   0.906114
O  -3.774908  -1.118723   0.848917
H  -5.422928  -2.269830   0.586894
H  -5.718661  -0.367249   0.301093
H  -5.398442  -1.161282   2.023530
H  -3.495704  -1.221866   0.186581
