%chk=/home/boittier/MDCM/nms_sampling/methanol_geom.xyz.dir/methanol_858.chk
%nproc=8
%mem=16000MB
#p B2PLYPD3/Def2QZVP 

methanol

0 1
C  -5.178498  -1.258004   0.909838
O  -3.763505  -1.121611   0.858938
H  -5.485214  -2.219133   0.533018
H  -5.710322  -0.459092   0.351653
H  -5.492955  -1.165470   1.995311
H  -3.521349  -1.206193   0.007596
