%chk=/home/boittier/MDCM/nms_sampling/methanol_geom.xyz.dir/methanol_247.chk
%nproc=8
%mem=16000MB
#p B2PLYPD3/Def2QZVP 

methanol

0 1
C  -5.169458  -1.256986   0.910162
O  -3.770531  -1.122284   0.872333
H  -5.517827  -2.175468   0.551123
H  -5.700306  -0.516551   0.382721
H  -5.474922  -1.162795   1.929990
H  -3.511093  -1.195180  -0.198724
