%chk=/home/boittier/MDCM/nms_sampling/methanol_geom.xyz.dir/methanol_880.chk
%nproc=8
%mem=16000MB
#p B2PLYPD3/Def2QZVP 

methanol

0 1
C  -5.177942  -1.252766   0.917315
O  -3.764155  -1.124169   0.851808
H  -5.514177  -2.283637   0.520705
H  -5.692216  -0.426943   0.357963
H  -5.504285  -1.166355   1.969563
H  -3.496546  -1.193207   0.070997

