%chk=/home/boittier/MDCM/nms_sampling/methanol_geom.xyz.dir/methanol_1733.chk
%nproc=8
%mem=16000MB
#p B2PLYPD3/Def2QZVP 

methanol

0 1
C  -5.180312  -1.257577   0.920028
O  -3.761193  -1.122164   0.846516
H  -5.504682  -2.272784   0.515208
H  -5.663344  -0.397656   0.333878
H  -5.510771  -1.171575   1.993395
H  -3.545365  -1.205077   0.130559

