%chk=/home/boittier/MDCM/nms_sampling/methanol_geom.xyz.dir/methanol_3362.chk
%nproc=8
%mem=16000MB
#p B2PLYPD3/Def2QZVP 

methanol

0 1
C  -5.171586  -1.244424   0.930792
O  -3.781519  -1.123469   0.888746
H  -5.582248  -2.197767   0.551491
H  -5.533892  -0.622543   0.448275
H  -5.419046  -1.131690   1.731234
H  -3.480780  -1.215467  -0.572128

