%chk=/home/boittier/MDCM/nms_sampling/methanol_geom.xyz.dir/methanol_3563.chk
%nproc=8
%mem=16000MB
#p B2PLYPD3/Def2QZVP 

methanol

0 1
C  -5.164925  -1.256406   0.925543
O  -3.779854  -1.128606   0.883792
H  -5.646747  -2.045036   0.630522
H  -5.588592  -0.554628   0.317122
H  -5.496111  -1.184047   1.844800
H  -3.371467  -1.178307  -0.496850

