%chk=/home/boittier/MDCM/nms_sampling/methanol_geom.xyz.dir/methanol_83.chk
%nproc=8
%mem=16000MB
#p B2PLYPD3/Def2QZVP 

methanol

0 1
C  -5.177235  -1.252593   0.917668
O  -3.773223  -1.125110   0.848600
H  -5.500163  -2.276630   0.559249
H  -5.648943  -0.421977   0.309313
H  -5.461066  -1.161133   1.996074
H  -3.461944  -1.195450   0.102075

