%chk=/home/boittier/MDCM/nms_sampling/methanol_geom.xyz.dir/methanol_1208.chk
%nproc=8
%mem=16000MB
#p B2PLYPD3/Def2QZVP 

methanol

0 1
C  -5.174357  -1.262724   0.908753
O  -3.761887  -1.118153   0.877578
H  -5.495579  -2.102669   0.567246
H  -5.679797  -0.507455   0.370073
H  -5.545616  -1.184629   1.925504
H  -3.559646  -1.257671  -0.268342
