%chk=/home/boittier/MDCM/nms_sampling/methanol_geom.xyz.dir/methanol_3381.chk
%nproc=8
%mem=16000MB
#p B2PLYPD3/Def2QZVP 

methanol

0 1
C  -5.179715  -1.238046   0.929251
O  -3.769317  -1.130136   0.878998
H  -5.480116  -2.166231   0.562484
H  -5.565177  -0.488513   0.374195
H  -5.586720  -1.260141   1.773429
H  -3.468858  -1.233475  -0.374229

