%chk=/home/boittier/MDCM/nms_sampling/methanol_geom.xyz.dir/methanol_1406.chk
%nproc=8
%mem=16000MB
#p B2PLYPD3/Def2QZVP 

methanol

0 1
C  -5.181796  -1.248941   0.908743
O  -3.763265  -1.126527   0.875266
H  -5.534486  -2.184920   0.599494
H  -5.672331  -0.546736   0.372013
H  -5.496810  -1.172237   1.919455
H  -3.473200  -1.173630  -0.256237
