%chk=/home/boittier/MDCM/nms_sampling/methanol_geom.xyz.dir/methanol_1048.chk
%nproc=8
%mem=16000MB
#p B2PLYPD3/Def2QZVP 

methanol

0 1
C  -5.175417  -1.252075   0.911131
O  -3.771407  -1.124975   0.868154
H  -5.507718  -2.178380   0.553002
H  -5.682331  -0.502742   0.361389
H  -5.479587  -1.184531   1.953013
H  -3.451174  -1.198773  -0.145957
