%chk=/home/boittier/MDCM/nms_sampling/methanol_geom.xyz.dir/methanol_980.chk
%nproc=8
%mem=16000MB
#p B2PLYPD3/Def2QZVP 

methanol

0 1
C  -5.171992  -1.254147   0.917840
O  -3.773291  -1.125388   0.853203
H  -5.488894  -2.233451   0.523461
H  -5.668455  -0.429847   0.328601
H  -5.499184  -1.170239   1.984887
H  -3.472786  -1.201527   0.050876

