%chk=/home/boittier/MDCM/nms_sampling/methanol_geom.xyz.dir/methanol_1725.chk
%nproc=8
%mem=16000MB
#p B2PLYPD3/Def2QZVP 

methanol

0 1
C  -5.189286  -1.253627   0.926927
O  -3.757671  -1.128308   0.844853
H  -5.530280  -2.275146   0.535035
H  -5.707164  -0.389673   0.262382
H  -5.509406  -1.180621   1.973631
H  -3.426704  -1.153837   0.147239
