%chk=/home/boittier/MDCM/nms_sampling/methanol_geom.xyz.dir/methanol_1327.chk
%nproc=8
%mem=16000MB
#p B2PLYPD3/Def2QZVP 

methanol

0 1
C  -5.175270  -1.253523   0.906655
O  -3.775904  -1.125104   0.850530
H  -5.475996  -2.234472   0.534372
H  -5.684667  -0.443311   0.337762
H  -5.451608  -1.169672   2.065060
H  -3.439515  -1.196582   0.124286

