%chk=/home/boittier/MDCM/nms_sampling/methanol_geom.xyz.dir/methanol_1194.chk
%nproc=8
%mem=16000MB
#p B2PLYPD3/Def2QZVP 

methanol

0 1
C  -5.180501  -1.258287   0.919852
O  -3.767279  -1.124950   0.865532
H  -5.552905  -2.181268   0.557942
H  -5.664557  -0.477214   0.340707
H  -5.456767  -1.166552   1.919552
H  -3.450683  -1.169303  -0.155238
