%chk=/home/boittier/MDCM/nms_sampling/methanol_geom.xyz.dir/methanol_3010.chk
%nproc=8
%mem=16000MB
#p B2PLYPD3/Def2QZVP 

methanol

0 1
C  -5.220898  -1.275133   0.928476
O  -3.741818  -1.115903   0.831964
H  -5.502681  -2.345043   0.612482
H  -5.681676  -0.268714   0.204530
H  -5.355881  -1.151488   1.973894
H  -3.518108  -1.175458   0.325287
