%chk=/home/boittier/MDCM/nms_sampling/methanol_geom.xyz.dir/methanol_1283.chk
%nproc=8
%mem=16000MB
#p B2PLYPD3/Def2QZVP 

methanol

0 1
C  -5.188711  -1.250633   0.922057
O  -3.767117  -1.126319   0.872023
H  -5.447726  -2.196257   0.567627
H  -5.622342  -0.494878   0.329565
H  -5.497130  -1.157681   1.857391
H  -3.468145  -1.210757  -0.222656
