%chk=/home/boittier/MDCM/nms_sampling/methanol_geom.xyz.dir/methanol_1349.chk
%nproc=8
%mem=16000MB
#p B2PLYPD3/Def2QZVP 

methanol

0 1
C  -5.192518  -1.265370   0.908807
O  -3.757971  -1.115472   0.862384
H  -5.489751  -2.249026   0.545497
H  -5.768495  -0.481864   0.345291
H  -5.390718  -1.112361   1.968007
H  -3.492500  -1.212603  -0.014668
