%chk=/home/boittier/MDCM/nms_sampling/methanol_geom.xyz.dir/methanol_1745.chk
%nproc=8
%mem=16000MB
#p B2PLYPD3/Def2QZVP 

methanol

0 1
C  -5.182421  -1.253197   0.916940
O  -3.757330  -1.119466   0.843854
H  -5.580783  -2.296403   0.498445
H  -5.678904  -0.443260   0.366618
H  -5.464627  -1.196471   2.039441
H  -3.541316  -1.200587   0.147471
