%chk=/home/boittier/MDCM/nms_sampling/methanol_geom.xyz.dir/methanol_3220.chk
%nproc=8
%mem=16000MB
#p B2PLYPD3/Def2QZVP 

methanol

0 1
C  -5.146565  -1.228558   0.900169
O  -3.782562  -1.131286   0.832614
H  -5.478253  -2.345131   0.466624
H  -5.775663  -0.494281   0.310212
H  -5.554897  -1.220246   2.222548
H  -3.475864  -1.177188   0.426505

