%chk=/home/boittier/MDCM/nms_sampling/methanol_geom.xyz.dir/methanol_1188.chk
%nproc=8
%mem=16000MB
#p B2PLYPD3/Def2QZVP 

methanol

0 1
C  -5.173939  -1.255511   0.914334
O  -3.771267  -1.120024   0.851229
H  -5.534611  -2.263928   0.523832
H  -5.670538  -0.460504   0.355896
H  -5.434035  -1.162159   2.015251
H  -3.505081  -1.212325   0.066605
