%chk=/home/boittier/MDCM/nms_sampling/methanol_geom.xyz.dir/methanol_1019.chk
%nproc=8
%mem=16000MB
#p B2PLYPD3/Def2QZVP 

methanol

0 1
C  -5.171830  -1.257974   0.917505
O  -3.769660  -1.119184   0.853297
H  -5.555463  -2.246809   0.528337
H  -5.706070  -0.465636   0.327181
H  -5.439310  -1.161835   1.996605
H  -3.492562  -1.210960   0.037475
