%chk=/home/boittier/MDCM/nms_sampling/methanol_geom.xyz.dir/methanol_221.chk
%nproc=8
%mem=16000MB
#p B2PLYPD3/Def2QZVP 

methanol

0 1
C  -5.188819  -1.260351   0.917029
O  -3.760350  -1.119575   0.865433
H  -5.523924  -2.223023   0.542491
H  -5.693688  -0.501132   0.352160
H  -5.423369  -1.133802   1.925535
H  -3.503110  -1.193141  -0.122365

