%chk=/home/boittier/MDCM/nms_sampling/methanol_geom.xyz.dir/methanol_821.chk
%nproc=8
%mem=16000MB
#p B2PLYPD3/Def2QZVP 

methanol

0 1
C  -5.182422  -1.258888   0.906535
O  -3.764139  -1.119655   0.872775
H  -5.499196  -2.177496   0.575464
H  -5.682090  -0.509005   0.386703
H  -5.465138  -1.157879   1.936280
H  -3.510074  -1.223753  -0.197027
