%chk=/home/boittier/MDCM/nms_sampling/methanol_geom.xyz.dir/methanol_1575.chk
%nproc=8
%mem=16000MB
#p B2PLYPD3/Def2QZVP 

methanol

0 1
C  -5.185628  -1.261087   0.920197
O  -3.759006  -1.119376   0.840652
H  -5.571225  -2.239545   0.528948
H  -5.685034  -0.405822   0.276809
H  -5.460828  -1.193342   2.065538
H  -3.480213  -1.211106   0.191976
