%chk=/home/boittier/MDCM/nms_sampling/methanol_geom.xyz.dir/methanol_3493.chk
%nproc=8
%mem=16000MB
#p B2PLYPD3/Def2QZVP 

methanol

0 1
C  -5.176165  -1.262118   0.935085
O  -3.777150  -1.117694   0.879687
H  -5.573382  -2.191050   0.513623
H  -5.660520  -0.534333   0.382203
H  -5.287129  -1.164581   1.754196
H  -3.504606  -1.163462  -0.395290
