%chk=/home/boittier/MDCM/nms_sampling/methanol_geom.xyz.dir/methanol_3526.chk
%nproc=8
%mem=16000MB
#p B2PLYPD3/Def2QZVP 

methanol

0 1
C  -5.187256  -1.270604   0.903837
O  -3.749107  -1.117896   0.842959
H  -5.446101  -2.310409   0.578502
H  -5.859387  -0.306019   0.283809
H  -5.507513  -1.149262   2.034904
H  -3.519275  -1.202420   0.326329
