%chk=/home/boittier/MDCM/nms_sampling/methanol_geom.xyz.dir/methanol_450.chk
%nproc=8
%mem=16000MB
#p B2PLYPD3/Def2QZVP 

methanol

0 1
C  -5.183597  -1.251790   0.917070
O  -3.765665  -1.123966   0.865495
H  -5.497372  -2.232548   0.545716
H  -5.636560  -0.497029   0.373015
H  -5.478631  -1.152151   1.915555
H  -3.507121  -1.200196  -0.136652
