%chk=/home/boittier/MDCM/nms_sampling/methanol_geom.xyz.dir/methanol_3336.chk
%nproc=8
%mem=16000MB
#p B2PLYPD3/Def2QZVP 

methanol

0 1
C  -5.212809  -1.248157   0.904040
O  -3.748059  -1.121254   0.864819
H  -5.427777  -2.301348   0.517938
H  -5.812019  -0.541224   0.357325
H  -5.362821  -1.158468   1.976331
H  -3.464364  -1.159760   0.007642
