%chk=/home/boittier/MDCM/nms_sampling/methanol_geom.xyz.dir/methanol_408.chk
%nproc=8
%mem=16000MB
#p B2PLYPD3/Def2QZVP 

methanol

0 1
C  -5.180261  -1.251708   0.915418
O  -3.766161  -1.124797   0.852019
H  -5.506597  -2.252762   0.535201
H  -5.686510  -0.450942   0.320676
H  -5.493420  -1.169894   2.006783
H  -3.462251  -1.198493   0.072590
