%chk=/home/boittier/MDCM/nms_sampling/methanol_geom.xyz.dir/methanol_603.chk
%nproc=8
%mem=16000MB
#p B2PLYPD3/Def2QZVP 

methanol

0 1
C  -5.165355  -1.251534   0.913950
O  -3.773154  -1.121774   0.850004
H  -5.528975  -2.269020   0.518813
H  -5.699461  -0.468941   0.335048
H  -5.465906  -1.177752   2.031410
H  -3.518846  -1.203426   0.099583

