%chk=/home/boittier/MDCM/nms_sampling/methanol_geom.xyz.dir/methanol_1988.chk
%nproc=8
%mem=16000MB
#p B2PLYPD3/Def2QZVP 

methanol

0 1
C  -5.194575  -1.250127   0.910967
O  -3.762938  -1.120492   0.878988
H  -5.489600  -2.231476   0.567444
H  -5.687328  -0.537711   0.420866
H  -5.404749  -1.166374   1.848816
H  -3.458981  -1.215148  -0.286202
