%chk=/home/boittier/MDCM/nms_sampling/methanol_geom.xyz.dir/methanol_300.chk
%nproc=8
%mem=16000MB
#p B2PLYPD3/Def2QZVP 

methanol

0 1
C  -5.171038  -1.253146   0.920312
O  -3.771806  -1.121336   0.855842
H  -5.510226  -2.258774   0.518580
H  -5.689985  -0.457484   0.336512
H  -5.462386  -1.176360   1.952217
H  -3.505578  -1.214525   0.009007
