%chk=/home/boittier/MDCM/nms_sampling/methanol_geom.xyz.dir/methanol_3398.chk
%nproc=8
%mem=16000MB
#p B2PLYPD3/Def2QZVP 

methanol

0 1
C  -5.166407  -1.240769   0.894244
O  -3.769899  -1.130332   0.833621
H  -5.514726  -2.381277   0.483019
H  -5.811536  -0.414384   0.404091
H  -5.498639  -1.184815   2.173796
H  -3.427583  -1.130919   0.425263

