%chk=/home/boittier/MDCM/nms_sampling/methanol_geom.xyz.dir/methanol_2883.chk
%nproc=8
%mem=16000MB
#p B2PLYPD3/Def2QZVP 

methanol

0 1
C  -5.217443  -1.259823   0.900098
O  -3.752819  -1.126350   0.891869
H  -5.460289  -2.019713   0.610732
H  -5.628310  -0.599694   0.371804
H  -5.473510  -1.133507   1.933808
H  -3.363718  -1.201690  -0.457042

