%chk=/home/boittier/MDCM/nms_sampling/methanol_geom.xyz.dir/methanol_3168.chk
%nproc=8
%mem=16000MB
#p B2PLYPD3/Def2QZVP 

methanol

0 1
C  -5.187665  -1.260493   0.928126
O  -3.777423  -1.133628   0.876457
H  -5.516375  -2.185689   0.642794
H  -5.591309  -0.462912   0.315414
H  -5.416576  -1.079690   1.774892
H  -3.355050  -1.104076  -0.340707

