%chk=/home/boittier/MDCM/nms_sampling/methanol_geom.xyz.dir/methanol_2370.chk
%nproc=8
%mem=16000MB
#p B2PLYPD3/Def2QZVP 

methanol

0 1
C  -5.179389  -1.253130   0.925081
O  -3.764479  -1.124173   0.862306
H  -5.563146  -2.230799   0.503333
H  -5.688921  -0.477961   0.367670
H  -5.506412  -1.152880   1.898968
H  -3.428343  -1.204104  -0.114894

