%chk=/home/boittier/MDCM/nms_sampling/methanol_geom.xyz.dir/methanol_2646.chk
%nproc=8
%mem=16000MB
#p B2PLYPD3/Def2QZVP 

methanol

0 1
C  -5.180696  -1.243313   0.902290
O  -3.768340  -1.120363   0.887322
H  -5.371942  -2.243002   0.572467
H  -5.690449  -0.551161   0.457003
H  -5.434846  -1.213368   1.819625
H  -3.617766  -1.222993  -0.331057

