%chk=/home/boittier/MDCM/nms_sampling/methanol_geom.xyz.dir/methanol_1959.chk
%nproc=8
%mem=16000MB
#p B2PLYPD3/Def2QZVP 

methanol

0 1
C  -5.173877  -1.255213   0.922106
O  -3.760287  -1.116610   0.877657
H  -5.569750  -2.206987   0.536740
H  -5.678342  -0.533571   0.414977
H  -5.501680  -1.173041   1.819602
H  -3.569975  -1.244855  -0.330259

