%chk=/home/boittier/MDCM/nms_sampling/methanol_geom.xyz.dir/methanol_3373.chk
%nproc=8
%mem=16000MB
#p B2PLYPD3/Def2QZVP 

methanol

0 1
C  -5.153588  -1.254174   0.921332
O  -3.789521  -1.120298   0.889269
H  -5.498384  -2.098741   0.630540
H  -5.597396  -0.591362   0.307672
H  -5.442696  -1.175812   1.812984
H  -3.550898  -1.243951  -0.495299
