%chk=/home/boittier/MDCM/nms_sampling/methanol_geom.xyz.dir/methanol_3340.chk
%nproc=8
%mem=16000MB
#p B2PLYPD3/Def2QZVP 

methanol

0 1
C  -5.177345  -1.241637   0.897154
O  -3.761178  -1.124256   0.890778
H  -5.502598  -2.147197   0.575672
H  -5.708807  -0.675488   0.427612
H  -5.556852  -1.147091   1.929022
H  -3.500676  -1.226097  -0.418674

