%chk=/home/boittier/MDCM/nms_sampling/methanol_geom.xyz.dir/methanol_1768.chk
%nproc=8
%mem=16000MB
#p B2PLYPD3/Def2QZVP 

methanol

0 1
C  -5.168183  -1.260084   0.916258
O  -3.768536  -1.119035   0.844538
H  -5.635090  -2.274070   0.531692
H  -5.716115  -0.438539   0.339642
H  -5.409649  -1.176208   2.045323
H  -3.491207  -1.175032   0.131798
