%chk=/home/boittier/MDCM/nms_sampling/methanol_geom.xyz.dir/methanol_2499.chk
%nproc=8
%mem=16000MB
#p B2PLYPD3/Def2QZVP 

methanol

0 1
C  -5.160187  -1.277559   0.914071
O  -3.776353  -1.114124   0.898852
H  -5.549713  -2.093483   0.692090
H  -5.727513  -0.492952   0.367608
H  -5.436149  -1.114278   1.711025
H  -3.503628  -1.241291  -0.578445
