%chk=/home/boittier/MDCM/nms_sampling/methanol_geom.xyz.dir/methanol_3257.chk
%nproc=8
%mem=16000MB
#p B2PLYPD3/Def2QZVP 

methanol

0 1
C  -5.193041  -1.266062   0.922732
O  -3.747463  -1.119789   0.882287
H  -5.691206  -2.019527   0.628680
H  -5.665559  -0.555077   0.291569
H  -5.517538  -1.205683   1.886461
H  -3.415045  -1.212292  -0.455884

