%chk=/home/boittier/MDCM/nms_sampling/methanol_geom.xyz.dir/methanol_87.chk
%nproc=8
%mem=16000MB
#p B2PLYPD3/Def2QZVP 

methanol

0 1
C  -5.180435  -1.257139   0.916785
O  -3.763190  -1.121260   0.864205
H  -5.569042  -2.203088   0.549208
H  -5.688255  -0.508807   0.347228
H  -5.453117  -1.161220   1.950350
H  -3.484303  -1.190724  -0.127053
