%chk=/home/boittier/MDCM/nms_sampling/methanol_geom.xyz.dir/methanol_2555.chk
%nproc=8
%mem=16000MB
#p B2PLYPD3/Def2QZVP 

methanol

0 1
C  -5.153616  -1.253749   0.909167
O  -3.786588  -1.118073   0.893224
H  -5.440517  -2.186893   0.605653
H  -5.688083  -0.628882   0.380879
H  -5.385900  -1.120414   1.809422
H  -3.627863  -1.208628  -0.459432

