%chk=/home/boittier/MDCM/nms_sampling/methanol_geom.xyz.dir/methanol_1599.chk
%nproc=8
%mem=16000MB
#p B2PLYPD3/Def2QZVP 

methanol

0 1
C  -5.187018  -1.249023   0.904541
O  -3.764859  -1.120586   0.847109
H  -5.455098  -2.314274   0.503255
H  -5.671736  -0.475497   0.382148
H  -5.461401  -1.136224   2.078066
H  -3.510830  -1.236871   0.180088
