%chk=/home/boittier/MDCM/nms_sampling/methanol_geom.xyz.dir/methanol_307.chk
%nproc=8
%mem=16000MB
#p B2PLYPD3/Def2QZVP 

methanol

0 1
C  -5.184524  -1.254635   0.919883
O  -3.764125  -1.119610   0.866811
H  -5.509853  -2.218742   0.539989
H  -5.662000  -0.504433   0.352881
H  -5.441989  -1.173191   1.904429
H  -3.520537  -1.219481  -0.155315
