%chk=/home/boittier/MDCM/nms_sampling/methanol_geom.xyz.dir/methanol_1820.chk
%nproc=8
%mem=16000MB
#p B2PLYPD3/Def2QZVP 

methanol

0 1
C  -5.166098  -1.252351   0.908359
O  -3.774993  -1.126556   0.874258
H  -5.520869  -2.126344   0.596827
H  -5.683169  -0.517897   0.339280
H  -5.507286  -1.204645   1.948018
H  -3.457045  -1.190659  -0.230823
