%chk=/home/boittier/MDCM/nms_sampling/methanol_geom.xyz.dir/methanol_2526.chk
%nproc=8
%mem=16000MB
#p B2PLYPD3/Def2QZVP 

methanol

0 1
C  -5.194967  -1.267449   0.897098
O  -3.755737  -1.119027   0.834893
H  -5.421131  -2.254615   0.537299
H  -5.782878  -0.371508   0.258715
H  -5.478237  -1.128433   2.200754
H  -3.458980  -1.228032   0.429589
