%chk=/home/boittier/MDCM/nms_sampling/methanol_geom.xyz.dir/methanol_1639.chk
%nproc=8
%mem=16000MB
#p B2PLYPD3/Def2QZVP 

methanol

0 1
C  -5.185417  -1.266620   0.918548
O  -3.756055  -1.114446   0.875573
H  -5.592764  -2.189410   0.546032
H  -5.714088  -0.489828   0.420337
H  -5.442019  -1.150227   1.839278
H  -3.502027  -1.231179  -0.288050
