%chk=/home/boittier/MDCM/nms_sampling/methanol_geom.xyz.dir/methanol_3290.chk
%nproc=8
%mem=16000MB
#p B2PLYPD3/Def2QZVP 

methanol

0 1
C  -5.180379  -1.251202   0.927469
O  -3.775339  -1.124230   0.887908
H  -5.645583  -2.130455   0.544559
H  -5.618708  -0.637323   0.406402
H  -5.335208  -1.168105   1.800174
H  -3.407248  -1.142944  -0.544490

