%chk=/home/boittier/MDCM/nms_sampling/methanol_geom.xyz.dir/methanol_3416.chk
%nproc=8
%mem=16000MB
#p B2PLYPD3/Def2QZVP 

methanol

0 1
C  -5.180859  -1.255402   0.907996
O  -3.778779  -1.127644   0.850009
H  -5.535463  -2.198622   0.636687
H  -5.599938  -0.427886   0.285453
H  -5.425786  -1.176486   2.067930
H  -3.376853  -1.180852   0.065440

