%chk=/home/boittier/MDCM/nms_sampling/methanol_geom.xyz.dir/methanol_2206.chk
%nproc=8
%mem=16000MB
#p B2PLYPD3/Def2QZVP 

methanol

0 1
C  -5.171321  -1.259890   0.904941
O  -3.771513  -1.124810   0.872948
H  -5.490820  -2.175235   0.576894
H  -5.734055  -0.449049   0.399705
H  -5.496782  -1.164074   1.912282
H  -3.441377  -1.191314  -0.169353
