%chk=/home/boittier/MDCM/nms_sampling/methanol_geom.xyz.dir/methanol_3162.chk
%nproc=8
%mem=16000MB
#p B2PLYPD3/Def2QZVP 

methanol

0 1
C  -5.199796  -1.250277   0.901072
O  -3.756698  -1.129505   0.830955
H  -5.427547  -2.271156   0.558955
H  -5.729130  -0.386228   0.220425
H  -5.488254  -1.204840   2.214416
H  -3.421605  -1.155688   0.449699

