%chk=/home/boittier/MDCM/nms_sampling/methanol_geom.xyz.dir/methanol_2128.chk
%nproc=8
%mem=16000MB
#p B2PLYPD3/Def2QZVP 

methanol

0 1
C  -5.187899  -1.255135   0.906458
O  -3.762158  -1.119542   0.853713
H  -5.406364  -2.285030   0.607402
H  -5.689922  -0.414003   0.298226
H  -5.461481  -1.182543   1.996707
H  -3.566355  -1.231211   0.113607
