%chk=/home/boittier/MDCM/nms_sampling/methanol_geom.xyz.dir/methanol_1403.chk
%nproc=8
%mem=16000MB
#p B2PLYPD3/Def2QZVP 

methanol

0 1
C  -5.167688  -1.264223   0.901516
O  -3.771957  -1.118780   0.881385
H  -5.535300  -2.093051   0.624285
H  -5.684345  -0.503609   0.392526
H  -5.465552  -1.200349   1.924299
H  -3.512510  -1.225946  -0.321545

