%chk=/home/boittier/MDCM/nms_sampling/methanol_geom.xyz.dir/methanol_386.chk
%nproc=8
%mem=16000MB
#p B2PLYPD3/Def2QZVP 

methanol

0 1
C  -5.175573  -1.261998   0.922356
O  -3.768532  -1.122079   0.853195
H  -5.535201  -2.237298   0.517466
H  -5.702312  -0.410453   0.330600
H  -5.454583  -1.160533   1.951858
H  -3.470616  -1.187850   0.036146
