%chk=/home/boittier/MDCM/nms_sampling/methanol_geom.xyz.dir/methanol_960.chk
%nproc=8
%mem=16000MB
#p B2PLYPD3/Def2QZVP 

methanol

0 1
C  -5.175221  -1.256383   0.906525
O  -3.772965  -1.119990   0.872051
H  -5.499141  -2.194235   0.571373
H  -5.664950  -0.532838   0.390273
H  -5.431261  -1.141668   1.945837
H  -3.507932  -1.219867  -0.194446

