%chk=/home/boittier/MDCM/nms_sampling/methanol_geom.xyz.dir/methanol_3560.chk
%nproc=8
%mem=16000MB
#p B2PLYPD3/Def2QZVP 

methanol

0 1
C  -5.196012  -1.270102   0.899334
O  -3.754463  -1.120576   0.891841
H  -5.463371  -2.044636   0.661987
H  -5.731701  -0.559274   0.313468
H  -5.436879  -1.153032   1.905793
H  -3.512537  -1.171801  -0.410770

