%chk=/home/boittier/MDCM/nms_sampling/methanol_geom.xyz.dir/methanol_290.chk
%nproc=8
%mem=16000MB
#p B2PLYPD3/Def2QZVP 

methanol

0 1
C  -5.180527  -1.256785   0.911857
O  -3.762043  -1.120966   0.873011
H  -5.520698  -2.203039   0.563901
H  -5.741534  -0.514223   0.364149
H  -5.458878  -1.162261   1.901884
H  -3.490971  -1.193170  -0.194777
