%chk=/home/boittier/MDCM/nms_sampling/methanol_geom.xyz.dir/methanol_3548.chk
%nproc=8
%mem=16000MB
#p B2PLYPD3/Def2QZVP 

methanol

0 1
C  -5.173609  -1.260449   0.899504
O  -3.763479  -1.118060   0.887399
H  -5.477921  -2.106926   0.673512
H  -5.648811  -0.542359   0.368799
H  -5.573085  -1.146427   1.894806
H  -3.567523  -1.284354  -0.391593

