%chk=/home/boittier/MDCM/nms_sampling/methanol_geom.xyz.dir/methanol_478.chk
%nproc=8
%mem=16000MB
#p B2PLYPD3/Def2QZVP 

methanol

0 1
C  -5.185514  -1.251394   0.919520
O  -3.766098  -1.125414   0.869323
H  -5.512165  -2.182291   0.550344
H  -5.605607  -0.521807   0.358501
H  -5.485563  -1.162915   1.910975
H  -3.485469  -1.197711  -0.215501
