%chk=/home/boittier/MDCM/nms_sampling/methanol_geom.xyz.dir/methanol_1525.chk
%nproc=8
%mem=16000MB
#p B2PLYPD3/Def2QZVP 

methanol

0 1
C  -5.179401  -1.247343   0.927958
O  -3.762211  -1.127243   0.842388
H  -5.493488  -2.277040   0.489108
H  -5.653882  -0.385337   0.298149
H  -5.554079  -1.230505   1.986674
H  -3.514656  -1.194771   0.172193
