%chk=/home/boittier/MDCM/nms_sampling/methanol_geom.xyz.dir/methanol_339.chk
%nproc=8
%mem=16000MB
#p B2PLYPD3/Def2QZVP 

methanol

0 1
C  -5.173550  -1.253139   0.911209
O  -3.769906  -1.126037   0.872274
H  -5.498162  -2.193033   0.581086
H  -5.700813  -0.488129   0.364553
H  -5.491491  -1.177351   1.901204
H  -3.474190  -1.178679  -0.191040
