%chk=/home/boittier/MDCM/nms_sampling/methanol_geom.xyz.dir/methanol_2728.chk
%nproc=8
%mem=16000MB
#p B2PLYPD3/Def2QZVP 

methanol

0 1
C  -5.191560  -1.263547   0.931109
O  -3.775844  -1.128313   0.827444
H  -5.435203  -2.338440   0.487527
H  -5.695364  -0.282386   0.230796
H  -5.332184  -1.146642   2.018200
H  -3.395699  -1.109189   0.418116
