%chk=/home/boittier/MDCM/nms_sampling/methanol_geom.xyz.dir/methanol_3061.chk
%nproc=8
%mem=16000MB
#p B2PLYPD3/Def2QZVP 

methanol

0 1
C  -5.190107  -1.269032   0.922336
O  -3.762607  -1.111545   0.862863
H  -5.629227  -2.186068   0.560707
H  -5.576902  -0.550167   0.348005
H  -5.369115  -1.084617   1.962343
H  -3.523645  -1.251483  -0.195490

