%chk=/home/boittier/MDCM/nms_sampling/methanol_geom.xyz.dir/methanol_1905.chk
%nproc=8
%mem=16000MB
#p B2PLYPD3/Def2QZVP 

methanol

0 1
C  -5.181686  -1.255205   0.914873
O  -3.765420  -1.127730   0.875790
H  -5.498983  -2.155149   0.564362
H  -5.716112  -0.476283   0.362030
H  -5.495199  -1.193302   1.869743
H  -3.427589  -1.164036  -0.241470
