%chk=/home/boittier/MDCM/nms_sampling/methanol_geom.xyz.dir/methanol_1326.chk
%nproc=8
%mem=16000MB
#p B2PLYPD3/Def2QZVP 

methanol

0 1
C  -5.182038  -1.261942   0.918676
O  -3.769175  -1.120418   0.867755
H  -5.605139  -2.192742   0.566775
H  -5.642988  -0.504060   0.381492
H  -5.358379  -1.159277   1.909742
H  -3.474369  -1.161759  -0.216117

