%chk=/home/boittier/MDCM/nms_sampling/methanol_geom.xyz.dir/methanol_2339.chk
%nproc=8
%mem=16000MB
#p B2PLYPD3/Def2QZVP 

methanol

0 1
C  -5.185064  -1.248906   0.923603
O  -3.770080  -1.126550   0.865355
H  -5.552585  -2.269966   0.556446
H  -5.649060  -0.519591   0.356703
H  -5.417101  -1.122188   1.878196
H  -3.417794  -1.160245  -0.167068
