%chk=/home/boittier/MDCM/nms_sampling/methanol_geom.xyz.dir/methanol_508.chk
%nproc=8
%mem=16000MB
#p B2PLYPD3/Def2QZVP 

methanol

0 1
C  -5.176314  -1.257056   0.913934
O  -3.766645  -1.121262   0.869213
H  -5.583291  -2.199515   0.568736
H  -5.687348  -0.520243   0.375749
H  -5.448453  -1.151560   1.925914
H  -3.469690  -1.192837  -0.197478
