%chk=/home/boittier/MDCM/nms_sampling/methanol_geom.xyz.dir/methanol_1556.chk
%nproc=8
%mem=16000MB
#p B2PLYPD3/Def2QZVP 

methanol

0 1
C  -5.185021  -1.258999   0.924122
O  -3.771387  -1.128567   0.853788
H  -5.538649  -2.212420   0.554628
H  -5.629632  -0.457897   0.282359
H  -5.434122  -1.116563   1.975745
H  -3.405497  -1.141721  -0.009536

