%chk=/home/boittier/MDCM/nms_sampling/methanol_geom.xyz.dir/methanol_2102.chk
%nproc=8
%mem=16000MB
#p B2PLYPD3/Def2QZVP 

methanol

0 1
C  -5.188098  -1.257851   0.915729
O  -3.753715  -1.123753   0.870553
H  -5.646459  -2.177810   0.560160
H  -5.671862  -0.535873   0.400862
H  -5.490252  -1.141992   1.923258
H  -3.446101  -1.164043  -0.254559
