%chk=/home/boittier/MDCM/nms_sampling/methanol_geom.xyz.dir/methanol_3434.chk
%nproc=8
%mem=16000MB
#p B2PLYPD3/Def2QZVP 

methanol

0 1
C  -5.206046  -1.265523   0.908395
O  -3.751501  -1.114970   0.882720
H  -5.597068  -2.141491   0.660578
H  -5.628946  -0.572717   0.374939
H  -5.336487  -1.158067   1.888493
H  -3.522072  -1.188919  -0.406044
