%chk=/home/boittier/MDCM/nms_sampling/methanol_geom.xyz.dir/methanol_757.chk
%nproc=8
%mem=16000MB
#p B2PLYPD3/Def2QZVP 

methanol

0 1
C  -5.174722  -1.257927   0.911489
O  -3.768050  -1.121655   0.870754
H  -5.549042  -2.189782   0.558051
H  -5.714825  -0.527417   0.368460
H  -5.438481  -1.149516   1.935463
H  -3.481931  -1.181074  -0.186841
