%chk=/home/boittier/MDCM/nms_sampling/methanol_geom.xyz.dir/methanol_1087.chk
%nproc=8
%mem=16000MB
#p B2PLYPD3/Def2QZVP 

methanol

0 1
C  -5.183433  -1.253855   0.914688
O  -3.764854  -1.119899   0.868100
H  -5.535573  -2.208237   0.550383
H  -5.656309  -0.519455   0.379785
H  -5.438745  -1.176063   1.928041
H  -3.505207  -1.216355  -0.176225
