%chk=/home/boittier/MDCM/nms_sampling/methanol_geom.xyz.dir/methanol_2697.chk
%nproc=8
%mem=16000MB
#p B2PLYPD3/Def2QZVP 

methanol

0 1
C  -5.190440  -1.265154   0.921509
O  -3.767076  -1.114666   0.892079
H  -5.590782  -2.164285   0.644809
H  -5.628343  -0.571655   0.394946
H  -5.321728  -1.118186   1.736235
H  -3.481998  -1.212960  -0.561284
