%chk=/home/boittier/MDCM/nms_sampling/methanol_geom.xyz.dir/methanol_663.chk
%nproc=8
%mem=16000MB
#p B2PLYPD3/Def2QZVP 

methanol

0 1
C  -5.172271  -1.247314   0.908731
O  -3.772052  -1.124282   0.852596
H  -5.495586  -2.282552   0.542651
H  -5.706299  -0.464936   0.347421
H  -5.476971  -1.177113   2.023089
H  -3.472332  -1.203846   0.092186
