%chk=/home/boittier/MDCM/nms_sampling/methanol_geom.xyz.dir/methanol_2644.chk
%nproc=8
%mem=16000MB
#p B2PLYPD3/Def2QZVP 

methanol

0 1
C  -5.195668  -1.273031   0.929081
O  -3.744828  -1.110387   0.842025
H  -5.661995  -2.292743   0.459594
H  -5.728979  -0.359969   0.391715
H  -5.440124  -1.150376   1.957137
H  -3.478775  -1.248145   0.134166
