%chk=/home/boittier/MDCM/nms_sampling/methanol_geom.xyz.dir/methanol_666.chk
%nproc=8
%mem=16000MB
#p B2PLYPD3/Def2QZVP 

methanol

0 1
C  -5.174753  -1.260233   0.917463
O  -3.768469  -1.121588   0.849032
H  -5.546340  -2.220513   0.528059
H  -5.685345  -0.416333   0.318652
H  -5.462941  -1.187335   2.021006
H  -3.477965  -1.200384   0.091963
