%chk=/home/boittier/MDCM/nms_sampling/methanol_geom.xyz.dir/methanol_1269.chk
%nproc=8
%mem=16000MB
#p B2PLYPD3/Def2QZVP 

methanol

0 1
C  -5.182186  -1.251256   0.924798
O  -3.771281  -1.124413   0.851951
H  -5.525539  -2.270219   0.503364
H  -5.656466  -0.455820   0.333772
H  -5.434676  -1.159620   1.957515
H  -3.431457  -1.193596   0.032420

