%chk=/home/boittier/MDCM/nms_sampling/methanol_geom.xyz.dir/methanol_57.chk
%nproc=8
%mem=16000MB
#p B2PLYPD3/Def2QZVP 

methanol

0 1
C  -5.167614  -1.253203   0.919733
O  -3.770571  -1.119285   0.869615
H  -5.545886  -2.215821   0.549127
H  -5.690711  -0.519031   0.356628
H  -5.468552  -1.176743   1.889722
H  -3.523807  -1.227085  -0.197321

