%chk=/home/boittier/MDCM/nms_sampling/methanol_geom.xyz.dir/methanol_1164.chk
%nproc=8
%mem=16000MB
#p B2PLYPD3/Def2QZVP 

methanol

0 1
C  -5.181975  -1.255525   0.911140
O  -3.769055  -1.121881   0.866415
H  -5.495583  -2.224338   0.549681
H  -5.721766  -0.487815   0.363853
H  -5.417835  -1.162793   1.936811
H  -3.450053  -1.194972  -0.098866

