%chk=/home/boittier/MDCM/nms_sampling/methanol_geom.xyz.dir/methanol_3123.chk
%nproc=8
%mem=16000MB
#p B2PLYPD3/Def2QZVP 

methanol

0 1
C  -5.187152  -1.254002   0.912349
O  -3.760009  -1.113955   0.848619
H  -5.479111  -2.263821   0.613791
H  -5.602073  -0.459293   0.266213
H  -5.467943  -1.198972   2.045584
H  -3.621350  -1.289670   0.101437
