%chk=/home/boittier/MDCM/nms_sampling/methanol_geom.xyz.dir/methanol_2349.chk
%nproc=8
%mem=16000MB
#p B2PLYPD3/Def2QZVP 

methanol

0 1
C  -5.179833  -1.250058   0.925405
O  -3.771187  -1.125738   0.873763
H  -5.576037  -2.234668   0.577809
H  -5.655573  -0.525568   0.366123
H  -5.413241  -1.154848   1.818356
H  -3.432431  -1.157370  -0.295528

