%chk=/home/boittier/MDCM/nms_sampling/methanol_geom.xyz.dir/methanol_2529.chk
%nproc=8
%mem=16000MB
#p B2PLYPD3/Def2QZVP 

methanol

0 1
C  -5.158341  -1.256137   0.910970
O  -3.770244  -1.115509   0.877709
H  -5.539212  -2.261510   0.586703
H  -5.801919  -0.526747   0.384926
H  -5.410013  -1.177941   1.840444
H  -3.592505  -1.196146  -0.239725

