%chk=/home/boittier/MDCM/nms_sampling/methanol_geom.xyz.dir/methanol_3198.chk
%nproc=8
%mem=16000MB
#p B2PLYPD3/Def2QZVP 

methanol

0 1
C  -5.199971  -1.262757   0.913723
O  -3.759539  -1.111672   0.897983
H  -5.462062  -2.149715   0.563843
H  -5.768533  -0.599668   0.395524
H  -5.298641  -1.162557   1.755265
H  -3.503984  -1.227528  -0.509488

