%chk=/home/boittier/MDCM/nms_sampling/methanol_geom.xyz.dir/methanol_2208.chk
%nproc=8
%mem=16000MB
#p B2PLYPD3/Def2QZVP 

methanol

0 1
C  -5.176335  -1.258085   0.909263
O  -3.771847  -1.122920   0.879049
H  -5.497443  -2.144749   0.625885
H  -5.617294  -0.548658   0.351930
H  -5.451815  -1.140069   1.906467
H  -3.536919  -1.192685  -0.318083

