%chk=/home/boittier/MDCM/nms_sampling/methanol_geom.xyz.dir/methanol_3109.chk
%nproc=8
%mem=16000MB
#p B2PLYPD3/Def2QZVP 

methanol

0 1
C  -5.159492  -1.249659   0.926750
O  -3.785285  -1.126246   0.886189
H  -5.538248  -2.027025   0.575702
H  -5.534890  -0.555870   0.342064
H  -5.518532  -1.255730   1.832057
H  -3.487864  -1.235422  -0.508849

