%chk=/home/boittier/MDCM/nms_sampling/methanol_geom.xyz.dir/methanol_1922.chk
%nproc=8
%mem=16000MB
#p B2PLYPD3/Def2QZVP 

methanol

0 1
C  -5.179164  -1.268412   0.920538
O  -3.764110  -1.119623   0.839227
H  -5.567164  -2.223591   0.501192
H  -5.691972  -0.359103   0.306260
H  -5.471746  -1.168130   2.059958
H  -3.457502  -1.212019   0.216057

