%chk=/home/boittier/MDCM/nms_sampling/methanol_geom.xyz.dir/methanol_2760.chk
%nproc=8
%mem=16000MB
#p B2PLYPD3/Def2QZVP 

methanol

0 1
C  -5.179022  -1.268786   0.895083
O  -3.756071  -1.114336   0.889128
H  -5.561231  -2.082995   0.519357
H  -5.789337  -0.637511   0.456761
H  -5.430089  -1.118197   1.968395
H  -3.545217  -1.198240  -0.381890

