%chk=/home/boittier/MDCM/nms_sampling/methanol_geom.xyz.dir/methanol_484.chk
%nproc=8
%mem=16000MB
#p B2PLYPD3/Def2QZVP 

methanol

0 1
C  -5.185896  -1.256422   0.908246
O  -3.767295  -1.123872   0.851851
H  -5.477645  -2.253359   0.568499
H  -5.703495  -0.417145   0.322816
H  -5.441398  -1.170151   2.022104
H  -3.441636  -1.190195   0.110314

