%chk=/home/boittier/MDCM/nms_sampling/methanol_geom.xyz.dir/methanol_1038.chk
%nproc=8
%mem=16000MB
#p B2PLYPD3/Def2QZVP 

methanol

0 1
C  -5.179567  -1.252119   0.907723
O  -3.766138  -1.119699   0.872428
H  -5.510831  -2.207342   0.577427
H  -5.676007  -0.548953   0.378769
H  -5.456542  -1.159997   1.939014
H  -3.518847  -1.226992  -0.202509
