%chk=/home/boittier/MDCM/nms_sampling/methanol_geom.xyz.dir/methanol_3130.chk
%nproc=8
%mem=16000MB
#p B2PLYPD3/Def2QZVP 

methanol

0 1
C  -5.172506  -1.242502   0.922013
O  -3.781910  -1.134779   0.867331
H  -5.562794  -2.152489   0.592676
H  -5.489920  -0.505434   0.365445
H  -5.492447  -1.218930   1.916837
H  -3.437695  -1.145329  -0.265958

