%chk=/home/boittier/MDCM/nms_sampling/methanol_geom.xyz.dir/methanol_1788.chk
%nproc=8
%mem=16000MB
#p B2PLYPD3/Def2QZVP 

methanol

0 1
C  -5.175551  -1.244685   0.911456
O  -3.764341  -1.124548   0.882973
H  -5.475820  -2.203796   0.571111
H  -5.724788  -0.565581   0.381625
H  -5.518466  -1.184198   1.845319
H  -3.516076  -1.202874  -0.320539

