%chk=/home/boittier/MDCM/nms_sampling/methanol_geom.xyz.dir/methanol_3213.chk
%nproc=8
%mem=16000MB
#p B2PLYPD3/Def2QZVP 

methanol

0 1
C  -5.176725  -1.284601   0.900390
O  -3.764803  -1.118050   0.899152
H  -5.566294  -1.934887   0.613167
H  -5.762393  -0.548267   0.382625
H  -5.388111  -1.172072   1.888311
H  -3.480802  -1.147269  -0.546908
