%chk=/home/boittier/MDCM/nms_sampling/methanol_geom.xyz.dir/methanol_3304.chk
%nproc=8
%mem=16000MB
#p B2PLYPD3/Def2QZVP 

methanol

0 1
C  -5.194716  -1.255776   0.915038
O  -3.762704  -1.119789   0.819274
H  -5.506509  -2.330534   0.506742
H  -5.569425  -0.352290   0.295862
H  -5.432938  -1.185225   2.193049
H  -3.527821  -1.231252   0.478837

