%chk=/home/boittier/MDCM/nms_sampling/methanol_geom.xyz.dir/methanol_556.chk
%nproc=8
%mem=16000MB
#p B2PLYPD3/Def2QZVP 

methanol

0 1
C  -5.186361  -1.250738   0.912965
O  -3.763254  -1.124430   0.860632
H  -5.487715  -2.282158   0.546823
H  -5.704495  -0.482638   0.360792
H  -5.464772  -1.136773   1.944274
H  -3.470933  -1.184912  -0.025999

