%chk=/home/boittier/MDCM/nms_sampling/methanol_geom.xyz.dir/methanol_2298.chk
%nproc=8
%mem=16000MB
#p B2PLYPD3/Def2QZVP 

methanol

0 1
C  -5.183668  -1.256989   0.903416
O  -3.771477  -1.126297   0.881462
H  -5.492246  -2.132154   0.649940
H  -5.659856  -0.530793   0.354944
H  -5.417557  -1.167135   1.909723
H  -3.451954  -1.156291  -0.318419
