%chk=/home/boittier/MDCM/nms_sampling/methanol_geom.xyz.dir/methanol_1154.chk
%nproc=8
%mem=16000MB
#p B2PLYPD3/Def2QZVP 

methanol

0 1
C  -5.184725  -1.251461   0.919175
O  -3.763705  -1.121017   0.856102
H  -5.501044  -2.280810   0.531590
H  -5.683525  -0.480906   0.329206
H  -5.441371  -1.163563   1.955715
H  -3.514351  -1.204838   0.008963
