%chk=/home/boittier/MDCM/nms_sampling/methanol_geom.xyz.dir/methanol_1249.chk
%nproc=8
%mem=16000MB
#p B2PLYPD3/Def2QZVP 

methanol

0 1
C  -5.190030  -1.253736   0.909880
O  -3.768466  -1.125532   0.877051
H  -5.452798  -2.192224   0.622311
H  -5.702261  -0.489596   0.337832
H  -5.432511  -1.166491   1.868329
H  -3.410960  -1.186795  -0.234236
