%chk=/home/boittier/MDCM/nms_sampling/methanol_geom.xyz.dir/methanol_529.chk
%nproc=8
%mem=16000MB
#p B2PLYPD3/Def2QZVP 

methanol

0 1
C  -5.175391  -1.256356   0.907121
O  -3.770000  -1.120545   0.855482
H  -5.478514  -2.268433   0.554150
H  -5.687814  -0.469056   0.353850
H  -5.443563  -1.137900   2.014637
H  -3.537641  -1.206020   0.054691

