%chk=/home/boittier/MDCM/nms_sampling/methanol_geom.xyz.dir/methanol_622.chk
%nproc=8
%mem=16000MB
#p B2PLYPD3/Def2QZVP 

methanol

0 1
C  -5.177572  -1.249638   0.913854
O  -3.764449  -1.123839   0.869704
H  -5.489232  -2.224281   0.526755
H  -5.704525  -0.511845   0.385234
H  -5.511500  -1.168258   1.909021
H  -3.503616  -1.205982  -0.155250

