%chk=/home/boittier/MDCM/nms_sampling/methanol_geom.xyz.dir/methanol_2841.chk
%nproc=8
%mem=16000MB
#p B2PLYPD3/Def2QZVP 

methanol

0 1
C  -5.195548  -1.250436   0.908930
O  -3.747523  -1.121890   0.879395
H  -5.593322  -2.179616   0.526473
H  -5.778291  -0.637845   0.389173
H  -5.514228  -1.107652   1.938742
H  -3.389748  -1.207035  -0.293947

