%chk=/home/boittier/MDCM/nms_sampling/methanol_geom.xyz.dir/methanol_1367.chk
%nproc=8
%mem=16000MB
#p B2PLYPD3/Def2QZVP 

methanol

0 1
C  -5.161902  -1.254537   0.917911
O  -3.773884  -1.122073   0.855251
H  -5.537520  -2.264451   0.535200
H  -5.694800  -0.425461   0.363381
H  -5.468830  -1.200056   1.945401
H  -3.536547  -1.191510   0.012630
