%chk=/home/boittier/MDCM/nms_sampling/methanol_geom.xyz.dir/methanol_1800.chk
%nproc=8
%mem=16000MB
#p B2PLYPD3/Def2QZVP 

methanol

0 1
C  -5.177855  -1.249093   0.914603
O  -3.763411  -1.121217   0.855562
H  -5.543837  -2.263693   0.500742
H  -5.666487  -0.485189   0.398508
H  -5.513405  -1.171772   1.989061
H  -3.500853  -1.235802  -0.000219
