%chk=/home/boittier/MDCM/nms_sampling/methanol_geom.xyz.dir/methanol_3436.chk
%nproc=8
%mem=16000MB
#p B2PLYPD3/Def2QZVP 

methanol

0 1
C  -5.214499  -1.265217   0.892066
O  -3.748025  -1.116333   0.888724
H  -5.534168  -2.087371   0.625736
H  -5.676438  -0.586406   0.441578
H  -5.348547  -1.178182   1.949285
H  -3.480462  -1.191783  -0.407251

