%chk=/home/boittier/MDCM/nms_sampling/methanol_geom.xyz.dir/methanol_2943.chk
%nproc=8
%mem=16000MB
#p B2PLYPD3/Def2QZVP 

methanol

0 1
C  -5.177804  -1.278332   0.896432
O  -3.774310  -1.115617   0.887862
H  -5.502963  -2.015001   0.607625
H  -5.749709  -0.527625   0.368714
H  -5.353661  -1.153189   1.951221
H  -3.436482  -1.210689  -0.358731

