%chk=/home/boittier/MDCM/nms_sampling/methanol_geom.xyz.dir/methanol_193.chk
%nproc=8
%mem=16000MB
#p B2PLYPD3/Def2QZVP 

methanol

0 1
C  -5.177301  -1.262623   0.914490
O  -3.767120  -1.119842   0.871151
H  -5.561661  -2.152376   0.576416
H  -5.684287  -0.488638   0.359293
H  -5.445117  -1.175960   1.916061
H  -3.474492  -1.206556  -0.217572
