%chk=/home/boittier/MDCM/nms_sampling/methanol_geom.xyz.dir/methanol_2473.chk
%nproc=8
%mem=16000MB
#p B2PLYPD3/Def2QZVP 

methanol

0 1
C  -5.187851  -1.256234   0.931742
O  -3.755543  -1.127369   0.843461
H  -5.583971  -2.299581   0.521877
H  -5.776406  -0.358347   0.266161
H  -5.549407  -1.145778   1.934743
H  -3.316407  -1.182453   0.163585
