%chk=/home/boittier/MDCM/nms_sampling/methanol_geom.xyz.dir/methanol_578.chk
%nproc=8
%mem=16000MB
#p B2PLYPD3/Def2QZVP 

methanol

0 1
C  -5.178761  -1.258215   0.912468
O  -3.764090  -1.119599   0.874497
H  -5.485247  -2.175493   0.556927
H  -5.701894  -0.503507   0.369751
H  -5.489367  -1.167632   1.895355
H  -3.522483  -1.231320  -0.218662

