%chk=/home/boittier/MDCM/nms_sampling/methanol_geom.xyz.dir/methanol_1633.chk
%nproc=8
%mem=16000MB
#p B2PLYPD3/Def2QZVP 

methanol

0 1
C  -5.181041  -1.260483   0.904717
O  -3.765674  -1.120059   0.844548
H  -5.425653  -2.273030   0.544364
H  -5.681791  -0.397022   0.325355
H  -5.464735  -1.158542   2.081094
H  -3.573698  -1.215077   0.232859

