%chk=/home/boittier/MDCM/nms_sampling/methanol_geom.xyz.dir/methanol_1322.chk
%nproc=8
%mem=16000MB
#p B2PLYPD3/Def2QZVP 

methanol

0 1
C  -5.174367  -1.264837   0.907177
O  -3.769107  -1.119945   0.879738
H  -5.494251  -2.141864   0.617677
H  -5.730089  -0.448057   0.376943
H  -5.454484  -1.197436   1.860393
H  -3.485809  -1.210539  -0.271981
