%chk=/home/boittier/MDCM/nms_sampling/methanol_geom.xyz.dir/methanol_188.chk
%nproc=8
%mem=16000MB
#p B2PLYPD3/Def2QZVP 

methanol

0 1
C  -5.182360  -1.260734   0.918255
O  -3.758623  -1.119301   0.867076
H  -5.589858  -2.186801   0.548778
H  -5.692687  -0.520389   0.350497
H  -5.457902  -1.151593   1.933446
H  -3.504149  -1.195072  -0.177425
