%chk=/home/boittier/MDCM/nms_sampling/methanol_geom.xyz.dir/methanol_3545.chk
%nproc=8
%mem=16000MB
#p B2PLYPD3/Def2QZVP 

methanol

0 1
C  -5.204723  -1.274456   0.914233
O  -3.754576  -1.117228   0.892588
H  -5.420997  -2.090945   0.650568
H  -5.711116  -0.514734   0.293656
H  -5.415498  -1.107210   1.785273
H  -3.497705  -1.215134  -0.442500

