%chk=/home/boittier/MDCM/nms_sampling/methanol_geom.xyz.dir/methanol_31.chk
%nproc=8
%mem=16000MB
#p B2PLYPD3/Def2QZVP 

methanol

0 1
C  -5.193068  -1.255855   0.920589
O  -3.760516  -1.125258   0.871078
H  -5.514349  -2.199185   0.571563
H  -5.666660  -0.506087   0.333441
H  -5.459410  -1.138705   1.875561
H  -3.449021  -1.172526  -0.216226
