%chk=/home/boittier/MDCM/nms_sampling/methanol_geom.xyz.dir/methanol_830.chk
%nproc=8
%mem=16000MB
#p B2PLYPD3/Def2QZVP 

methanol

0 1
C  -5.169173  -1.250563   0.915122
O  -3.771751  -1.125749   0.867641
H  -5.557791  -2.216214   0.555704
H  -5.671763  -0.513778   0.380775
H  -5.486937  -1.162098   1.922219
H  -3.473007  -1.177805  -0.173636
