%chk=/home/boittier/MDCM/nms_sampling/methanol_geom.xyz.dir/methanol_333.chk
%nproc=8
%mem=16000MB
#p B2PLYPD3/Def2QZVP 

methanol

0 1
C  -5.168328  -1.255556   0.921017
O  -3.773130  -1.122084   0.849965
H  -5.497995  -2.259251   0.520087
H  -5.687626  -0.411101   0.314850
H  -5.483436  -1.183267   1.975383
H  -3.506365  -1.216111   0.093893

