%chk=/home/boittier/MDCM/nms_sampling/methanol_geom.xyz.dir/methanol_1653.chk
%nproc=8
%mem=16000MB
#p B2PLYPD3/Def2QZVP 

methanol

0 1
C  -5.169425  -1.252555   0.919094
O  -3.772042  -1.122523   0.848957
H  -5.510384  -2.294413   0.502348
H  -5.686359  -0.406284   0.367555
H  -5.499064  -1.172137   1.969381
H  -3.486627  -1.223852   0.106192
