%chk=/home/boittier/MDCM/nms_sampling/methanol_geom.xyz.dir/methanol_705.chk
%nproc=8
%mem=16000MB
#p B2PLYPD3/Def2QZVP 

methanol

0 1
C  -5.170116  -1.247803   0.906097
O  -3.772952  -1.125831   0.870341
H  -5.503902  -2.201134   0.551780
H  -5.685196  -0.526670   0.400676
H  -5.482825  -1.185880   1.956266
H  -3.487549  -1.185637  -0.162895
