%chk=/home/boittier/MDCM/nms_sampling/methanol_geom.xyz.dir/methanol_1815.chk
%nproc=8
%mem=16000MB
#p B2PLYPD3/Def2QZVP 

methanol

0 1
C  -5.195215  -1.251149   0.910849
O  -3.756251  -1.123299   0.857204
H  -5.459527  -2.296433   0.540668
H  -5.777695  -0.467320   0.321657
H  -5.439807  -1.160687   1.972314
H  -3.458781  -1.175147   0.070734
