%chk=/home/boittier/MDCM/nms_sampling/methanol_geom.xyz.dir/methanol_1916.chk
%nproc=8
%mem=16000MB
#p B2PLYPD3/Def2QZVP 

methanol

0 1
C  -5.199704  -1.256136   0.920899
O  -3.756329  -1.120653   0.851255
H  -5.513779  -2.324392   0.534092
H  -5.697219  -0.450110   0.329387
H  -5.429728  -1.102794   1.949461
H  -3.445218  -1.204274   0.073611
