%chk=/home/boittier/MDCM/nms_sampling/methanol_geom.xyz.dir/methanol_1858.chk
%nproc=8
%mem=16000MB
#p B2PLYPD3/Def2QZVP 

methanol

0 1
C  -5.166422  -1.249545   0.911731
O  -3.775854  -1.123615   0.852027
H  -5.468342  -2.290237   0.495457
H  -5.764919  -0.429911   0.356946
H  -5.459102  -1.193441   1.995687
H  -3.465023  -1.199180   0.131633

