%chk=/home/boittier/MDCM/nms_sampling/methanol_geom.xyz.dir/methanol_1758.chk
%nproc=8
%mem=16000MB
#p B2PLYPD3/Def2QZVP 

methanol

0 1
C  -5.183128  -1.257784   0.927197
O  -3.772353  -1.121919   0.874002
H  -5.549063  -2.200822   0.517224
H  -5.655105  -0.531531   0.380787
H  -5.386403  -1.121323   1.832299
H  -3.431316  -1.187103  -0.291211
