%chk=/home/boittier/MDCM/nms_sampling/methanol_geom.xyz.dir/methanol_2142.chk
%nproc=8
%mem=16000MB
#p B2PLYPD3/Def2QZVP 

methanol

0 1
C  -5.180600  -1.256384   0.926128
O  -3.766988  -1.124892   0.875421
H  -5.567940  -2.172232   0.529001
H  -5.694279  -0.500184   0.375832
H  -5.443750  -1.179098   1.823823
H  -3.423618  -1.164656  -0.299818

