%chk=/home/boittier/MDCM/nms_sampling/methanol_geom.xyz.dir/methanol_3382.chk
%nproc=8
%mem=16000MB
#p B2PLYPD3/Def2QZVP 

methanol

0 1
C  -5.195337  -1.233284   0.933773
O  -3.765218  -1.126986   0.829954
H  -5.414081  -2.404073   0.560511
H  -5.532631  -0.371422   0.218118
H  -5.537785  -1.208381   1.990369
H  -3.509474  -1.263151   0.315417

