%chk=/home/boittier/MDCM/nms_sampling/methanol_geom.xyz.dir/methanol_2330.chk
%nproc=8
%mem=16000MB
#p B2PLYPD3/Def2QZVP 

methanol

0 1
C  -5.170606  -1.261433   0.910571
O  -3.770963  -1.123752   0.853294
H  -5.425024  -2.227484   0.526842
H  -5.744237  -0.378714   0.321889
H  -5.491061  -1.183512   1.997121
H  -3.517415  -1.188900   0.126300
