%chk=/home/boittier/MDCM/nms_sampling/methanol_geom.xyz.dir/methanol_2807.chk
%nproc=8
%mem=16000MB
#p B2PLYPD3/Def2QZVP 

methanol

0 1
C  -5.179498  -1.280992   0.906448
O  -3.759337  -1.120022   0.834373
H  -5.496232  -2.296752   0.524865
H  -5.850174  -0.231933   0.332016
H  -5.446993  -1.135790   2.062657
H  -3.461128  -1.150405   0.414660
