%chk=/home/boittier/MDCM/nms_sampling/methanol_geom.xyz.dir/methanol_3425.chk
%nproc=8
%mem=16000MB
#p B2PLYPD3/Def2QZVP 

methanol

0 1
C  -5.167838  -1.258477   0.917580
O  -3.783268  -1.122456   0.898177
H  -5.417066  -2.121216   0.656729
H  -5.635621  -0.562237   0.333205
H  -5.464784  -1.106665   1.727413
H  -3.505842  -1.237525  -0.558776

