%chk=/home/boittier/MDCM/nms_sampling/methanol_geom.xyz.dir/methanol_592.chk
%nproc=8
%mem=16000MB
#p B2PLYPD3/Def2QZVP 

methanol

0 1
C  -5.182193  -1.247856   0.912413
O  -3.765157  -1.124583   0.870367
H  -5.488990  -2.246342   0.568104
H  -5.689778  -0.521933   0.370906
H  -5.473420  -1.159424   1.901857
H  -3.493617  -1.189677  -0.167740
