%chk=/home/boittier/MDCM/nms_sampling/methanol_geom.xyz.dir/methanol_2773.chk
%nproc=8
%mem=16000MB
#p B2PLYPD3/Def2QZVP 

methanol

0 1
C  -5.202883  -1.254947   0.929652
O  -3.745584  -1.129493   0.820858
H  -5.583555  -2.258402   0.452108
H  -5.667163  -0.326514   0.243132
H  -5.547878  -1.234503   2.143424
H  -3.402813  -1.149962   0.434888

