%chk=/home/boittier/MDCM/nms_sampling/methanol_geom.xyz.dir/methanol_1410.chk
%nproc=8
%mem=16000MB
#p B2PLYPD3/Def2QZVP 

methanol

0 1
C  -5.173887  -1.242375   0.923760
O  -3.778721  -1.126259   0.874732
H  -5.484035  -2.207558   0.534947
H  -5.602521  -0.543496   0.377153
H  -5.468667  -1.184536   1.844172
H  -3.472480  -1.216021  -0.288728
