%chk=/home/boittier/MDCM/nms_sampling/methanol_geom.xyz.dir/methanol_1328.chk
%nproc=8
%mem=16000MB
#p B2PLYPD3/Def2QZVP 

methanol

0 1
C  -5.187201  -1.250603   0.914662
O  -3.760704  -1.124061   0.852328
H  -5.516236  -2.292425   0.509280
H  -5.745925  -0.412492   0.375268
H  -5.480335  -1.192884   1.965959
H  -3.413111  -1.197981   0.092085
