%chk=/home/boittier/MDCM/nms_sampling/methanol_geom.xyz.dir/methanol_1486.chk
%nproc=8
%mem=16000MB
#p B2PLYPD3/Def2QZVP 

methanol

0 1
C  -5.179687  -1.243838   0.911385
O  -3.760478  -1.126151   0.854346
H  -5.461659  -2.326330   0.503978
H  -5.778521  -0.478579   0.348064
H  -5.525365  -1.153167   1.984769
H  -3.484583  -1.183325   0.108915
