%chk=/home/boittier/MDCM/nms_sampling/methanol_geom.xyz.dir/methanol_3174.chk
%nproc=8
%mem=16000MB
#p B2PLYPD3/Def2QZVP 

methanol

0 1
C  -5.172959  -1.232407   0.901514
O  -3.762362  -1.127114   0.844990
H  -5.445945  -2.392138   0.509865
H  -5.768936  -0.430326   0.398724
H  -5.563701  -1.231227   2.046157
H  -3.519842  -1.204351   0.263167

