%chk=/home/boittier/MDCM/nms_sampling/methanol_geom.xyz.dir/methanol_2054.chk
%nproc=8
%mem=16000MB
#p B2PLYPD3/Def2QZVP 

methanol

0 1
C  -5.179699  -1.244511   0.921382
O  -3.773278  -1.130081   0.838737
H  -5.483548  -2.319428   0.547490
H  -5.590638  -0.407700   0.289951
H  -5.489221  -1.172328   2.033200
H  -3.478534  -1.171614   0.213584

