%chk=/home/boittier/MDCM/nms_sampling/methanol_geom.xyz.dir/methanol_393.chk
%nproc=8
%mem=16000MB
#p B2PLYPD3/Def2QZVP 

methanol

0 1
C  -5.177657  -1.253935   0.916871
O  -3.766873  -1.119306   0.869789
H  -5.549794  -2.189728   0.562434
H  -5.651572  -0.542088   0.351859
H  -5.451737  -1.172289   1.925867
H  -3.518004  -1.225056  -0.212841
