%chk=/home/boittier/MDCM/nms_sampling/methanol_geom.xyz.dir/methanol_2649.chk
%nproc=8
%mem=16000MB
#p B2PLYPD3/Def2QZVP 

methanol

0 1
C  -5.166711  -1.267165   0.923174
O  -3.769683  -1.110309   0.835559
H  -5.709733  -2.298012   0.508316
H  -5.701761  -0.404678   0.345035
H  -5.356837  -1.176152   2.058023
H  -3.486838  -1.236328   0.203554

