%chk=/home/boittier/MDCM/nms_sampling/methanol_geom.xyz.dir/methanol_328.chk
%nproc=8
%mem=16000MB
#p B2PLYPD3/Def2QZVP 

methanol

0 1
C  -5.178421  -1.255301   0.906915
O  -3.769510  -1.122385   0.872903
H  -5.519384  -2.199360   0.591850
H  -5.699125  -0.524432   0.374672
H  -5.422305  -1.159041   1.929735
H  -3.477964  -1.182442  -0.200956
