%chk=/home/boittier/MDCM/nms_sampling/methanol_geom.xyz.dir/methanol_1463.chk
%nproc=8
%mem=16000MB
#p B2PLYPD3/Def2QZVP 

methanol

0 1
C  -5.158456  -1.257104   0.915266
O  -3.777462  -1.122601   0.872142
H  -5.501328  -2.164672   0.594878
H  -5.688656  -0.490863   0.316632
H  -5.489237  -1.186920   1.901645
H  -3.539707  -1.203002  -0.204605

