%chk=/home/boittier/MDCM/nms_sampling/methanol_geom.xyz.dir/methanol_2446.chk
%nproc=8
%mem=16000MB
#p B2PLYPD3/Def2QZVP 

methanol

0 1
C  -5.184040  -1.255386   0.921732
O  -3.761730  -1.112004   0.877142
H  -5.589302  -2.176768   0.533525
H  -5.494815  -0.614485   0.451995
H  -5.458996  -1.133287   1.877733
H  -3.642389  -1.297250  -0.411829

