%chk=/home/boittier/MDCM/nms_sampling/methanol_geom.xyz.dir/methanol_1624.chk
%nproc=8
%mem=16000MB
#p B2PLYPD3/Def2QZVP 

methanol

0 1
C  -5.155365  -1.257057   0.919551
O  -3.778095  -1.117850   0.876572
H  -5.594421  -2.152205   0.523630
H  -5.638247  -0.564909   0.414816
H  -5.464355  -1.164684   1.885244
H  -3.554393  -1.234011  -0.338584

