%chk=/home/boittier/MDCM/nms_sampling/methanol_geom.xyz.dir/methanol_1812.chk
%nproc=8
%mem=16000MB
#p B2PLYPD3/Def2QZVP 

methanol

0 1
C  -5.179948  -1.256578   0.915558
O  -3.766858  -1.119412   0.873596
H  -5.509179  -2.132706   0.580820
H  -5.599624  -0.514537   0.354221
H  -5.473734  -1.210721   1.913779
H  -3.556638  -1.240947  -0.268190

