%chk=/home/boittier/MDCM/nms_sampling/methanol_geom.xyz.dir/methanol_2257.chk
%nproc=8
%mem=16000MB
#p B2PLYPD3/Def2QZVP 

methanol

0 1
C  -5.172327  -1.250798   0.900951
O  -3.769812  -1.125954   0.877663
H  -5.515713  -2.139846   0.603054
H  -5.686919  -0.517999   0.400060
H  -5.525718  -1.203108   1.942603
H  -3.451398  -1.205721  -0.258673

