%chk=/home/boittier/MDCM/nms_sampling/methanol_geom.xyz.dir/methanol_327.chk
%nproc=8
%mem=16000MB
#p B2PLYPD3/Def2QZVP 

methanol

0 1
C  -5.176514  -1.253312   0.915986
O  -3.773525  -1.126224   0.868912
H  -5.518651  -2.190685   0.580630
H  -5.620807  -0.511245   0.351752
H  -5.469438  -1.143174   1.919575
H  -3.466485  -1.184718  -0.198440
