%chk=/home/boittier/MDCM/nms_sampling/methanol_geom.xyz.dir/methanol_2611.chk
%nproc=8
%mem=16000MB
#p B2PLYPD3/Def2QZVP 

methanol

0 1
C  -5.189531  -1.254861   0.893119
O  -3.760497  -1.116718   0.854473
H  -5.406347  -2.226147   0.602032
H  -5.620436  -0.457123   0.354039
H  -5.474950  -1.208070   2.100989
H  -3.629747  -1.267712   0.100130
