%chk=/home/boittier/MDCM/nms_sampling/methanol_geom.xyz.dir/methanol_2000.chk
%nproc=8
%mem=16000MB
#p B2PLYPD3/Def2QZVP 

methanol

0 1
C  -5.177520  -1.244260   0.913309
O  -3.771937  -1.123801   0.843727
H  -5.498662  -2.296229   0.512059
H  -5.612171  -0.450649   0.359383
H  -5.484826  -1.191146   2.061200
H  -3.497391  -1.231381   0.163578

