%chk=/home/boittier/MDCM/nms_sampling/methanol_geom.xyz.dir/methanol_927.chk
%nproc=8
%mem=16000MB
#p B2PLYPD3/Def2QZVP 

methanol

0 1
C  -5.188380  -1.257145   0.914911
O  -3.760930  -1.119246   0.855183
H  -5.551763  -2.247240   0.531818
H  -5.680454  -0.469058   0.359916
H  -5.425029  -1.169287   1.991586
H  -3.482852  -1.207291   0.007052

