%chk=/home/boittier/MDCM/nms_sampling/methanol_geom.xyz.dir/methanol_2605.chk
%nproc=8
%mem=16000MB
#p B2PLYPD3/Def2QZVP 

methanol

0 1
C  -5.175079  -1.257246   0.911463
O  -3.773360  -1.127670   0.886259
H  -5.634232  -2.046735   0.635635
H  -5.654322  -0.547629   0.370694
H  -5.457072  -1.209123   1.882553
H  -3.342184  -1.162551  -0.467271

