%chk=/home/boittier/MDCM/nms_sampling/methanol_geom.xyz.dir/methanol_3511.chk
%nproc=8
%mem=16000MB
#p B2PLYPD3/Def2QZVP 

methanol

0 1
C  -5.175138  -1.234866   0.894942
O  -3.760929  -1.129386   0.837486
H  -5.468677  -2.368228   0.552491
H  -5.761781  -0.440169   0.335251
H  -5.562174  -1.214623   2.158222
H  -3.500762  -1.173441   0.368174
