%chk=/home/boittier/MDCM/nms_sampling/methanol_geom.xyz.dir/methanol_276.chk
%nproc=8
%mem=16000MB
#p B2PLYPD3/Def2QZVP 

methanol

0 1
C  -5.176653  -1.254015   0.918421
O  -3.773177  -1.125162   0.867594
H  -5.498658  -2.210074   0.581242
H  -5.630425  -0.481650   0.343875
H  -5.477183  -1.146243   1.894786
H  -3.472989  -1.200530  -0.171992

