%chk=/home/boittier/MDCM/nms_sampling/methanol_geom.xyz.dir/methanol_212.chk
%nproc=8
%mem=16000MB
#p B2PLYPD3/Def2QZVP 

methanol

0 1
C  -5.177663  -1.262548   0.919342
O  -3.766653  -1.119148   0.866649
H  -5.578661  -2.171890   0.548123
H  -5.683491  -0.490576   0.350456
H  -5.430085  -1.169068   1.924284
H  -3.478016  -1.202652  -0.172821
