%chk=/home/boittier/MDCM/nms_sampling/methanol_geom.xyz.dir/methanol_1560.chk
%nproc=8
%mem=16000MB
#p B2PLYPD3/Def2QZVP 

methanol

0 1
C  -5.175864  -1.260758   0.920241
O  -3.761952  -1.120438   0.877017
H  -5.526395  -2.159435   0.604991
H  -5.643611  -0.499010   0.340156
H  -5.528628  -1.156568   1.841023
H  -3.564838  -1.223872  -0.313715

