%chk=/home/boittier/MDCM/nms_sampling/methanol_geom.xyz.dir/methanol_1774.chk
%nproc=8
%mem=16000MB
#p B2PLYPD3/Def2QZVP 

methanol

0 1
C  -5.186445  -1.254789   0.916882
O  -3.768098  -1.126034   0.845722
H  -5.520129  -2.255359   0.535072
H  -5.646613  -0.398673   0.330760
H  -5.438111  -1.191828   2.022632
H  -3.438063  -1.170188   0.134035

