%chk=/home/boittier/MDCM/nms_sampling/methanol_geom.xyz.dir/methanol_460.chk
%nproc=8
%mem=16000MB
#p B2PLYPD3/Def2QZVP 

methanol

0 1
C  -5.181427  -1.259513   0.921658
O  -3.767365  -1.123704   0.848491
H  -5.519829  -2.250702   0.518550
H  -5.692889  -0.396134   0.315232
H  -5.464044  -1.161150   1.981218
H  -3.436749  -1.191483   0.105842

