%chk=/home/boittier/MDCM/nms_sampling/methanol_geom.xyz.dir/methanol_204.chk
%nproc=8
%mem=16000MB
#p B2PLYPD3/Def2QZVP 

methanol

0 1
C  -5.179834  -1.251115   0.915145
O  -3.763348  -1.125432   0.865877
H  -5.492929  -2.212338   0.554236
H  -5.704358  -0.478835   0.339574
H  -5.510475  -1.191221   1.925311
H  -3.488311  -1.188234  -0.106284
