%chk=/home/boittier/MDCM/nms_sampling/methanol_geom.xyz.dir/methanol_3050.chk
%nproc=8
%mem=16000MB
#p B2PLYPD3/Def2QZVP 

methanol

0 1
C  -5.169187  -1.286144   0.926255
O  -3.770828  -1.116531   0.867630
H  -5.687907  -2.015490   0.546352
H  -5.651973  -0.446299   0.324390
H  -5.430584  -1.143769   1.941668
H  -3.421256  -1.203467  -0.263250
