%chk=/home/boittier/MDCM/nms_sampling/methanol_geom.xyz.dir/methanol_2694.chk
%nproc=8
%mem=16000MB
#p B2PLYPD3/Def2QZVP 

methanol

0 1
C  -5.191063  -1.244850   0.930048
O  -3.775138  -1.131468   0.852169
H  -5.488052  -2.333984   0.501077
H  -5.713324  -0.454548   0.300885
H  -5.337066  -1.152954   1.901366
H  -3.346715  -1.097755   0.060002
