%chk=/home/boittier/MDCM/nms_sampling/methanol_geom.xyz.dir/methanol_3408.chk
%nproc=8
%mem=16000MB
#p B2PLYPD3/Def2QZVP 

methanol

0 1
C  -5.187648  -1.274360   0.920134
O  -3.747222  -1.118322   0.843728
H  -5.497596  -2.257513   0.543262
H  -5.849775  -0.312579   0.230589
H  -5.544508  -1.136926   1.988401
H  -3.463672  -1.214243   0.254284

