%chk=/home/boittier/MDCM/nms_sampling/methanol_geom.xyz.dir/methanol_1612.chk
%nproc=8
%mem=16000MB
#p B2PLYPD3/Def2QZVP 

methanol

0 1
C  -5.175242  -1.249804   0.926112
O  -3.768963  -1.124586   0.840060
H  -5.543730  -2.323278   0.446946
H  -5.744314  -0.394180   0.336925
H  -5.467645  -1.189080   1.996263
H  -3.408500  -1.189276   0.226277

