%chk=/home/boittier/MDCM/nms_sampling/methanol_geom.xyz.dir/methanol_1643.chk
%nproc=8
%mem=16000MB
#p B2PLYPD3/Def2QZVP 

methanol

0 1
C  -5.174413  -1.258527   0.903801
O  -3.767731  -1.123884   0.853204
H  -5.498827  -2.225965   0.573608
H  -5.760298  -0.434286   0.305670
H  -5.455726  -1.182874   2.056084
H  -3.472897  -1.166095   0.116199

