%chk=/home/boittier/MDCM/nms_sampling/methanol_geom.xyz.dir/methanol_377.chk
%nproc=8
%mem=16000MB
#p B2PLYPD3/Def2QZVP 

methanol

0 1
C  -5.179936  -1.252441   0.910549
O  -3.763331  -1.120018   0.871979
H  -5.504393  -2.217004   0.561270
H  -5.704476  -0.501540   0.393705
H  -5.477524  -1.190903   1.900583
H  -3.513158  -1.227084  -0.186614
