%chk=/home/boittier/MDCM/nms_sampling/methanol_geom.xyz.dir/methanol_1037.chk
%nproc=8
%mem=16000MB
#p B2PLYPD3/Def2QZVP 

methanol

0 1
C  -5.178927  -1.257036   0.917514
O  -3.764254  -1.120964   0.869175
H  -5.546396  -2.160201   0.562569
H  -5.642287  -0.507065   0.350413
H  -5.476153  -1.193805   1.925146
H  -3.527475  -1.209616  -0.208198
