%chk=/home/boittier/MDCM/nms_sampling/methanol_geom.xyz.dir/methanol_2779.chk
%nproc=8
%mem=16000MB
#p B2PLYPD3/Def2QZVP 

methanol

0 1
C  -5.191058  -1.265029   0.890514
O  -3.746091  -1.116154   0.846858
H  -5.544302  -2.267259   0.505118
H  -5.787831  -0.440746   0.433479
H  -5.483514  -1.139044   2.148788
H  -3.527284  -1.207505   0.224798
