%chk=/home/boittier/MDCM/nms_sampling/methanol_geom.xyz.dir/methanol_3465.chk
%nproc=8
%mem=16000MB
#p B2PLYPD3/Def2QZVP 

methanol

0 1
C  -5.174161  -1.268575   0.920922
O  -3.772831  -1.113168   0.842255
H  -5.692935  -2.264084   0.575608
H  -5.643833  -0.439857   0.314150
H  -5.312462  -1.144146   2.045133
H  -3.469014  -1.204742   0.096707

