%chk=/home/boittier/MDCM/nms_sampling/methanol_geom.xyz.dir/methanol_1007.chk
%nproc=8
%mem=16000MB
#p B2PLYPD3/Def2QZVP 

methanol

0 1
C  -5.188030  -1.255076   0.922085
O  -3.764118  -1.124191   0.863284
H  -5.506892  -2.220739   0.559698
H  -5.657574  -0.474363   0.317596
H  -5.451371  -1.163291   1.908097
H  -3.474493  -1.183111  -0.111327
