%chk=/home/boittier/MDCM/nms_sampling/methanol_geom.xyz.dir/methanol_3236.chk
%nproc=8
%mem=16000MB
#p B2PLYPD3/Def2QZVP 

methanol

0 1
C  -5.164644  -1.255671   0.890865
O  -3.761647  -1.111608   0.852076
H  -5.485341  -2.245181   0.529043
H  -5.752712  -0.444071   0.415488
H  -5.531472  -1.238269   2.116603
H  -3.634015  -1.304789   0.161738

