%chk=/home/boittier/MDCM/nms_sampling/methanol_geom.xyz.dir/methanol_599.chk
%nproc=8
%mem=16000MB
#p B2PLYPD3/Def2QZVP 

methanol

0 1
C  -5.177811  -1.260214   0.912196
O  -3.762535  -1.121458   0.852694
H  -5.509185  -2.229764   0.540509
H  -5.711164  -0.433009   0.323119
H  -5.497238  -1.162891   2.018627
H  -3.514399  -1.202480   0.079609

