%chk=/home/boittier/MDCM/nms_sampling/methanol_geom.xyz.dir/methanol_182.chk
%nproc=8
%mem=16000MB
#p B2PLYPD3/Def2QZVP 

methanol

0 1
C  -5.183520  -1.258403   0.917141
O  -3.763276  -1.120764   0.854744
H  -5.539855  -2.259465   0.530872
H  -5.693978  -0.438171   0.359216
H  -5.432138  -1.169202   1.962983
H  -3.490980  -1.189073   0.019840
