%chk=/home/boittier/MDCM/nms_sampling/methanol_geom.xyz.dir/methanol_1827.chk
%nproc=8
%mem=16000MB
#p B2PLYPD3/Def2QZVP 

methanol

0 1
C  -5.183957  -1.248975   0.903728
O  -3.757615  -1.124766   0.868241
H  -5.554149  -2.207890   0.582676
H  -5.739396  -0.527558   0.369921
H  -5.499077  -1.191092   1.981937
H  -3.449294  -1.178994  -0.126912
