%chk=/home/boittier/MDCM/nms_sampling/methanol_geom.xyz.dir/methanol_3214.chk
%nproc=8
%mem=16000MB
#p B2PLYPD3/Def2QZVP 

methanol

0 1
C  -5.147930  -1.252076   0.910296
O  -3.775237  -1.117336   0.828933
H  -5.482983  -2.433053   0.490073
H  -5.830774  -0.330872   0.334916
H  -5.454068  -1.214033   2.072973
H  -3.615005  -1.204127   0.479788

