%chk=/home/boittier/MDCM/nms_sampling/methanol_geom.xyz.dir/methanol_1561.chk
%nproc=8
%mem=16000MB
#p B2PLYPD3/Def2QZVP 

methanol

0 1
C  -5.184434  -1.250905   0.902961
O  -3.765777  -1.125445   0.881850
H  -5.473142  -2.161181   0.568788
H  -5.655836  -0.575694   0.423823
H  -5.479368  -1.145282   1.917941
H  -3.499763  -1.186735  -0.316340

