%chk=/home/boittier/MDCM/nms_sampling/methanol_geom.xyz.dir/methanol_1278.chk
%nproc=8
%mem=16000MB
#p B2PLYPD3/Def2QZVP 

methanol

0 1
C  -5.165216  -1.246863   0.903575
O  -3.774690  -1.127518   0.855199
H  -5.483721  -2.237237   0.579438
H  -5.703723  -0.441352   0.338289
H  -5.529143  -1.212058   2.034884
H  -3.468541  -1.196798   0.070763

