%chk=/home/boittier/MDCM/nms_sampling/methanol_geom.xyz.dir/methanol_1574.chk
%nproc=8
%mem=16000MB
#p B2PLYPD3/Def2QZVP 

methanol

0 1
C  -5.190945  -1.265758   0.924775
O  -3.754910  -1.121028   0.861687
H  -5.559215  -2.168950   0.546742
H  -5.686837  -0.428926   0.312933
H  -5.457494  -1.196807   1.913068
H  -3.492237  -1.177389  -0.104881
