%chk=/home/boittier/MDCM/nms_sampling/methanol_geom.xyz.dir/methanol_1527.chk
%nproc=8
%mem=16000MB
#p B2PLYPD3/Def2QZVP 

methanol

0 1
C  -5.172995  -1.254477   0.917095
O  -3.761252  -1.117683   0.872859
H  -5.579416  -2.186076   0.545638
H  -5.674161  -0.579158   0.366987
H  -5.489430  -1.158900   1.920256
H  -3.572282  -1.225922  -0.259335

