%chk=/home/boittier/MDCM/nms_sampling/methanol_geom.xyz.dir/methanol_2845.chk
%nproc=8
%mem=16000MB
#p B2PLYPD3/Def2QZVP 

methanol

0 1
C  -5.216924  -1.245084   0.890730
O  -3.749183  -1.126944   0.901462
H  -5.510243  -2.112826   0.670408
H  -5.716870  -0.678794   0.417133
H  -5.418078  -1.160253   1.883216
H  -3.352926  -1.159373  -0.553901
