%chk=/home/boittier/MDCM/nms_sampling/methanol_geom.xyz.dir/methanol_1303.chk
%nproc=8
%mem=16000MB
#p B2PLYPD3/Def2QZVP 

methanol

0 1
C  -5.177826  -1.260890   0.910904
O  -3.769986  -1.126608   0.881819
H  -5.491625  -2.109435   0.565914
H  -5.728150  -0.489858   0.376891
H  -5.488320  -1.164888   1.867740
H  -3.401911  -1.176438  -0.308858

