%chk=/home/boittier/MDCM/nms_sampling/methanol_geom.xyz.dir/methanol_2854.chk
%nproc=8
%mem=16000MB
#p B2PLYPD3/Def2QZVP 

methanol

0 1
C  -5.214780  -1.250637   0.896727
O  -3.756408  -1.128061   0.858960
H  -5.374064  -2.247130   0.574654
H  -5.721706  -0.405618   0.368804
H  -5.445499  -1.192656   2.011944
H  -3.359543  -1.186078   0.088962

