%chk=/home/boittier/MDCM/nms_sampling/methanol_geom.xyz.dir/methanol_429.chk
%nproc=8
%mem=16000MB
#p B2PLYPD3/Def2QZVP 

methanol

0 1
C  -5.178030  -1.250720   0.907331
O  -3.765555  -1.124596   0.869261
H  -5.502399  -2.195427   0.594964
H  -5.682684  -0.499355   0.357185
H  -5.513991  -1.186141   1.948331
H  -3.484179  -1.206850  -0.150789
