%chk=/home/boittier/MDCM/nms_sampling/methanol_geom.xyz.dir/methanol_3365.chk
%nproc=8
%mem=16000MB
#p B2PLYPD3/Def2QZVP 

methanol

0 1
C  -5.190458  -1.263346   0.920362
O  -3.754405  -1.115647   0.830306
H  -5.593817  -2.273588   0.546057
H  -5.575036  -0.377862   0.293780
H  -5.451077  -1.199413   2.114688
H  -3.594474  -1.229767   0.277858
