%chk=/home/boittier/MDCM/nms_sampling/methanol_geom.xyz.dir/methanol_3534.chk
%nproc=8
%mem=16000MB
#p B2PLYPD3/Def2QZVP 

methanol

0 1
C  -5.203114  -1.257530   0.915662
O  -3.745263  -1.123570   0.841327
H  -5.621800  -2.245537   0.588993
H  -5.680205  -0.406832   0.277169
H  -5.528908  -1.173670   2.073359
H  -3.381070  -1.203693   0.167867
