%chk=/home/boittier/MDCM/nms_sampling/methanol_geom.xyz.dir/methanol_1382.chk
%nproc=8
%mem=16000MB
#p B2PLYPD3/Def2QZVP 

methanol

0 1
C  -5.175406  -1.266698   0.923953
O  -3.768195  -1.120319   0.845074
H  -5.574550  -2.241866   0.479106
H  -5.685131  -0.414682   0.334001
H  -5.417775  -1.139246   2.013778
H  -3.493152  -1.172234   0.121074

