%chk=/home/boittier/MDCM/nms_sampling/methanol_geom.xyz.dir/methanol_3088.chk
%nproc=8
%mem=16000MB
#p B2PLYPD3/Def2QZVP 

methanol

0 1
C  -5.209691  -1.250457   0.924954
O  -3.748710  -1.127820   0.833765
H  -5.597593  -2.332886   0.431898
H  -5.676315  -0.478247   0.331854
H  -5.431780  -1.102802   2.092504
H  -3.383654  -1.122340   0.262564
