%chk=/home/boittier/MDCM/nms_sampling/methanol_geom.xyz.dir/methanol_288.chk
%nproc=8
%mem=16000MB
#p B2PLYPD3/Def2QZVP 

methanol

0 1
C  -5.177228  -1.253466   0.920890
O  -3.767678  -1.123824   0.866761
H  -5.559504  -2.229750   0.549276
H  -5.697772  -0.490749   0.359946
H  -5.450962  -1.167448   1.885952
H  -3.452663  -1.177687  -0.162685

