%chk=/home/boittier/MDCM/nms_sampling/methanol_geom.xyz.dir/methanol_774.chk
%nproc=8
%mem=16000MB
#p B2PLYPD3/Def2QZVP 

methanol

0 1
C  -5.178250  -1.253518   0.921509
O  -3.768155  -1.123633   0.863230
H  -5.539288  -2.242783   0.531006
H  -5.700997  -0.489267   0.347802
H  -5.465227  -1.141045   1.907606
H  -3.437820  -1.194553  -0.104493
