%chk=/home/boittier/MDCM/nms_sampling/methanol_geom.xyz.dir/methanol_2210.chk
%nproc=8
%mem=16000MB
#p B2PLYPD3/Def2QZVP 

methanol

0 1
C  -5.184526  -1.263919   0.905305
O  -3.770999  -1.117381   0.850804
H  -5.468534  -2.235738   0.524453
H  -5.741586  -0.443815   0.324601
H  -5.350393  -1.154936   2.071336
H  -3.464363  -1.206446   0.151522

