%chk=/home/boittier/MDCM/nms_sampling/methanol_geom.xyz.dir/methanol_1350.chk
%nproc=8
%mem=16000MB
#p B2PLYPD3/Def2QZVP 

methanol

0 1
C  -5.173135  -1.270709   0.909618
O  -3.767854  -1.121062   0.851975
H  -5.512194  -2.241343   0.575844
H  -5.781779  -0.366645   0.310176
H  -5.444800  -1.133786   1.995737
H  -3.460253  -1.172272   0.125046

