%chk=/home/boittier/MDCM/nms_sampling/methanol_geom.xyz.dir/methanol_2533.chk
%nproc=8
%mem=16000MB
#p B2PLYPD3/Def2QZVP 

methanol

0 1
C  -5.205370  -1.274254   0.939484
O  -3.752383  -1.116210   0.871026
H  -5.542525  -2.156944   0.597184
H  -5.600793  -0.481210   0.242182
H  -5.426310  -1.082957   1.799802
H  -3.505443  -1.224883  -0.296526

