%chk=/home/boittier/MDCM/nms_sampling/methanol_geom.xyz.dir/methanol_1380.chk
%nproc=8
%mem=16000MB
#p B2PLYPD3/Def2QZVP 

methanol

0 1
C  -5.165731  -1.255374   0.921283
O  -3.776715  -1.118943   0.843064
H  -5.496726  -2.317955   0.507441
H  -5.701523  -0.376367   0.328554
H  -5.435269  -1.193266   1.983589
H  -3.518230  -1.229905   0.196515
