%chk=/home/boittier/MDCM/nms_sampling/methanol_geom.xyz.dir/methanol_651.chk
%nproc=8
%mem=16000MB
#p B2PLYPD3/Def2QZVP 

methanol

0 1
C  -5.185320  -1.255207   0.921562
O  -3.764057  -1.120288   0.866346
H  -5.499627  -2.209822   0.573593
H  -5.645009  -0.485228   0.316735
H  -5.464113  -1.176460   1.895206
H  -3.515631  -1.228892  -0.155282
