%chk=/home/boittier/MDCM/nms_sampling/methanol_geom.xyz.dir/methanol_3486.chk
%nproc=8
%mem=16000MB
#p B2PLYPD3/Def2QZVP 

methanol

0 1
C  -5.220150  -1.255447   0.908751
O  -3.746648  -1.130191   0.901629
H  -5.419207  -2.079848   0.603684
H  -5.742490  -0.539194   0.393155
H  -5.448334  -1.203082   1.750479
H  -3.377376  -1.124632  -0.542471
