%chk=/home/boittier/MDCM/nms_sampling/methanol_geom.xyz.dir/methanol_3309.chk
%nproc=8
%mem=16000MB
#p B2PLYPD3/Def2QZVP 

methanol

0 1
C  -5.156288  -1.266702   0.905898
O  -3.771642  -1.123202   0.836925
H  -5.381189  -2.266509   0.498805
H  -5.787071  -0.288174   0.299111
H  -5.568726  -1.176671   2.093736
H  -3.591476  -1.200010   0.402612
