%chk=/home/boittier/MDCM/nms_sampling/methanol_geom.xyz.dir/methanol_1591.chk
%nproc=8
%mem=16000MB
#p B2PLYPD3/Def2QZVP 

methanol

0 1
C  -5.163873  -1.262913   0.909100
O  -3.770813  -1.120748   0.877291
H  -5.467872  -2.166940   0.611413
H  -5.735018  -0.472583   0.340548
H  -5.503886  -1.159972   1.875116
H  -3.554062  -1.209435  -0.228238

