%chk=/home/boittier/MDCM/nms_sampling/methanol_geom.xyz.dir/methanol_1197.chk
%nproc=8
%mem=16000MB
#p B2PLYPD3/Def2QZVP 

methanol

0 1
C  -5.170314  -1.257618   0.915157
O  -3.769237  -1.121660   0.854198
H  -5.488018  -2.243510   0.549400
H  -5.724010  -0.421197   0.306735
H  -5.480516  -1.185842   1.979995
H  -3.520262  -1.203297   0.067480
