%chk=/home/boittier/MDCM/nms_sampling/methanol_geom.xyz.dir/methanol_1974.chk
%nproc=8
%mem=16000MB
#p B2PLYPD3/Def2QZVP 

methanol

0 1
C  -5.185461  -1.260666   0.904323
O  -3.759520  -1.122413   0.868459
H  -5.529722  -2.152292   0.529756
H  -5.750846  -0.500860   0.385182
H  -5.476979  -1.165133   1.995555
H  -3.433718  -1.189224  -0.115630
