%chk=/home/boittier/MDCM/nms_sampling/methanol_geom.xyz.dir/methanol_656.chk
%nproc=8
%mem=16000MB
#p B2PLYPD3/Def2QZVP 

methanol

0 1
C  -5.178883  -1.263277   0.909919
O  -3.766272  -1.121311   0.872326
H  -5.511483  -2.148443   0.576207
H  -5.709629  -0.480449   0.356499
H  -5.447544  -1.176079   1.926801
H  -3.490015  -1.188805  -0.191210
