%chk=/home/boittier/MDCM/nms_sampling/methanol_geom.xyz.dir/methanol_309.chk
%nproc=8
%mem=16000MB
#p B2PLYPD3/Def2QZVP 

methanol

0 1
C  -5.176361  -1.254805   0.907027
O  -3.765241  -1.119843   0.856380
H  -5.498288  -2.250730   0.539141
H  -5.709830  -0.456413   0.371240
H  -5.472069  -1.185326   2.010046
H  -3.529527  -1.219784   0.043340
