%chk=/home/boittier/MDCM/nms_sampling/methanol_geom.xyz.dir/methanol_2417.chk
%nproc=8
%mem=16000MB
#p B2PLYPD3/Def2QZVP 

methanol

0 1
C  -5.213536  -1.258931   0.902195
O  -3.748177  -1.117325   0.841376
H  -5.558496  -2.311768   0.512458
H  -5.701129  -0.451492   0.397447
H  -5.390549  -1.118939   2.122967
H  -3.405906  -1.217233   0.232511

