%chk=/home/boittier/MDCM/nms_sampling/methanol_geom.xyz.dir/methanol_1824.chk
%nproc=8
%mem=16000MB
#p B2PLYPD3/Def2QZVP 

methanol

0 1
C  -5.182798  -1.252677   0.911058
O  -3.771003  -1.128351   0.882111
H  -5.461873  -2.166111   0.609154
H  -5.714484  -0.524851   0.339883
H  -5.438652  -1.164652   1.853137
H  -3.425417  -1.148784  -0.306087
