%chk=/home/boittier/MDCM/nms_sampling/methanol_geom.xyz.dir/methanol_697.chk
%nproc=8
%mem=16000MB
#p B2PLYPD3/Def2QZVP 

methanol

0 1
C  -5.177887  -1.253378   0.912702
O  -3.763532  -1.120029   0.860194
H  -5.478491  -2.253008   0.524083
H  -5.722224  -0.470675   0.357761
H  -5.477241  -1.183847   1.960336
H  -3.541792  -1.218169  -0.007629
