%chk=/home/boittier/MDCM/nms_sampling/methanol_geom.xyz.dir/methanol_647.chk
%nproc=8
%mem=16000MB
#p B2PLYPD3/Def2QZVP 

methanol

0 1
C  -5.177177  -1.261787   0.915160
O  -3.767342  -1.120702   0.869772
H  -5.582771  -2.156948   0.577064
H  -5.665216  -0.489628   0.368251
H  -5.441793  -1.177396   1.921302
H  -3.473508  -1.195689  -0.217366
