%chk=/home/boittier/MDCM/nms_sampling/methanol_geom.xyz.dir/methanol_56.chk
%nproc=8
%mem=16000MB
#p B2PLYPD3/Def2QZVP 

methanol

0 1
C  -5.187257  -1.257447   0.918935
O  -3.763388  -1.119834   0.849396
H  -5.507120  -2.291988   0.519968
H  -5.702357  -0.436714   0.323897
H  -5.425775  -1.143435   1.985649
H  -3.479944  -1.207656   0.108692
