%chk=/home/boittier/MDCM/nms_sampling/methanol_geom.xyz.dir/methanol_2598.chk
%nproc=8
%mem=16000MB
#p B2PLYPD3/Def2QZVP 

methanol

0 1
C  -5.172552  -1.240384   0.927112
O  -3.771992  -1.131147   0.833928
H  -5.523519  -2.252817   0.488405
H  -5.574935  -0.366019   0.298306
H  -5.601938  -1.264902   2.062307
H  -3.438576  -1.224124   0.243960

