%chk=/home/boittier/MDCM/nms_sampling/methanol_geom.xyz.dir/methanol_2262.chk
%nproc=8
%mem=16000MB
#p B2PLYPD3/Def2QZVP 

methanol

0 1
C  -5.169709  -1.255010   0.906314
O  -3.778845  -1.122779   0.881665
H  -5.441997  -2.179746   0.583126
H  -5.659800  -0.540123   0.405300
H  -5.427809  -1.145677   1.876572
H  -3.542186  -1.195087  -0.305154

