%chk=/home/boittier/MDCM/nms_sampling/methanol_geom.xyz.dir/methanol_314.chk
%nproc=8
%mem=16000MB
#p B2PLYPD3/Def2QZVP 

methanol

0 1
C  -5.174295  -1.259859   0.915354
O  -3.768235  -1.119088   0.851103
H  -5.535207  -2.252060   0.509841
H  -5.697005  -0.445630   0.352181
H  -5.449593  -1.152361   2.011640
H  -3.504848  -1.215103   0.077567

