%chk=/home/boittier/MDCM/nms_sampling/methanol_geom.xyz.dir/methanol_755.chk
%nproc=8
%mem=16000MB
#p B2PLYPD3/Def2QZVP 

methanol

0 1
C  -5.183634  -1.261440   0.910172
O  -3.760218  -1.120652   0.857394
H  -5.493214  -2.233923   0.553251
H  -5.734231  -0.411852   0.348955
H  -5.467343  -1.183140   1.973502
H  -3.505526  -1.196867   0.035678
