%chk=/home/boittier/MDCM/nms_sampling/methanol_geom.xyz.dir/methanol_1023.chk
%nproc=8
%mem=16000MB
#p B2PLYPD3/Def2QZVP 

methanol

0 1
C  -5.177348  -1.256048   0.914243
O  -3.762689  -1.121388   0.871231
H  -5.507447  -2.192758   0.572038
H  -5.687560  -0.472959   0.370622
H  -5.499023  -1.201639   1.887870
H  -3.540626  -1.209286  -0.192704

