%chk=/home/boittier/MDCM/nms_sampling/methanol_geom.xyz.dir/methanol_3440.chk
%nproc=8
%mem=16000MB
#p B2PLYPD3/Def2QZVP 

methanol

0 1
C  -5.207063  -1.251749   0.891216
O  -3.754311  -1.133245   0.830265
H  -5.438611  -2.292218   0.608221
H  -5.732952  -0.355080   0.255539
H  -5.476177  -1.184215   2.233103
H  -3.370300  -1.112086   0.477115
