%chk=/home/boittier/MDCM/nms_sampling/methanol_geom.xyz.dir/methanol_2192.chk
%nproc=8
%mem=16000MB
#p B2PLYPD3/Def2QZVP 

methanol

0 1
C  -5.172682  -1.252837   0.907685
O  -3.763726  -1.120582   0.853965
H  -5.476238  -2.289349   0.560201
H  -5.731091  -0.439342   0.342223
H  -5.500039  -1.183492   1.999540
H  -3.568760  -1.212844   0.094838
