%chk=/home/boittier/MDCM/nms_sampling/methanol_geom.xyz.dir/methanol_2437.chk
%nproc=8
%mem=16000MB
#p B2PLYPD3/Def2QZVP 

methanol

0 1
C  -5.152337  -1.246699   0.897508
O  -3.781046  -1.132185   0.895031
H  -5.477819  -2.127535   0.669488
H  -5.755591  -0.534834   0.398431
H  -5.565124  -1.195688   1.825533
H  -3.432172  -1.161757  -0.446664

