%chk=/home/boittier/MDCM/nms_sampling/methanol_geom.xyz.dir/methanol_1400.chk
%nproc=8
%mem=16000MB
#p B2PLYPD3/Def2QZVP 

methanol

0 1
C  -5.191809  -1.260993   0.918552
O  -3.760595  -1.116040   0.865305
H  -5.536853  -2.240407   0.546899
H  -5.691939  -0.526587   0.341148
H  -5.391673  -1.106659   1.923902
H  -3.490330  -1.222215  -0.130263
