%chk=/home/boittier/MDCM/nms_sampling/methanol_geom.xyz.dir/methanol_2379.chk
%nproc=8
%mem=16000MB
#p B2PLYPD3/Def2QZVP 

methanol

0 1
C  -5.175283  -1.241779   0.920576
O  -3.776914  -1.125090   0.872082
H  -5.503458  -2.260154   0.543066
H  -5.634652  -0.530175   0.402132
H  -5.440402  -1.177912   1.844895
H  -3.464283  -1.206973  -0.239247
