%chk=/home/boittier/MDCM/nms_sampling/methanol_geom.xyz.dir/methanol_2428.chk
%nproc=8
%mem=16000MB
#p B2PLYPD3/Def2QZVP 

methanol

0 1
C  -5.178410  -1.258149   0.900696
O  -3.754696  -1.117923   0.846376
H  -5.521603  -2.218609   0.540882
H  -5.695152  -0.404998   0.366906
H  -5.513137  -1.263672   2.112970
H  -3.615493  -1.221306   0.179363

