%chk=/home/boittier/MDCM/nms_sampling/methanol_geom.xyz.dir/methanol_2076.chk
%nproc=8
%mem=16000MB
#p B2PLYPD3/Def2QZVP 

methanol

0 1
C  -5.168430  -1.259324   0.913662
O  -3.768728  -1.118862   0.850384
H  -5.508751  -2.319587   0.543846
H  -5.745806  -0.412009   0.346066
H  -5.450536  -1.141490   1.972298
H  -3.542664  -1.202108   0.124612

