%chk=/home/boittier/MDCM/nms_sampling/methanol_geom.xyz.dir/methanol_1001.chk
%nproc=8
%mem=16000MB
#p B2PLYPD3/Def2QZVP 

methanol

0 1
C  -5.176688  -1.255749   0.917572
O  -3.762988  -1.119284   0.852268
H  -5.547954  -2.254641   0.520057
H  -5.682245  -0.480614   0.332025
H  -5.475724  -1.158631   2.008598
H  -3.537314  -1.216425   0.044471
