%chk=/home/boittier/MDCM/nms_sampling/methanol_geom.xyz.dir/methanol_2015.chk
%nproc=8
%mem=16000MB
#p B2PLYPD3/Def2QZVP 

methanol

0 1
C  -5.203738  -1.251450   0.927144
O  -3.755812  -1.125005   0.849354
H  -5.510157  -2.303711   0.488428
H  -5.683412  -0.436700   0.328983
H  -5.413120  -1.168925   1.943043
H  -3.435728  -1.158755   0.082441

