%chk=/home/boittier/MDCM/nms_sampling/methanol_geom.xyz.dir/methanol_1640.chk
%nproc=8
%mem=16000MB
#p B2PLYPD3/Def2QZVP 

methanol

0 1
C  -5.167516  -1.248236   0.910827
O  -3.780424  -1.128297   0.870548
H  -5.476416  -2.192975   0.598082
H  -5.620574  -0.512397   0.352748
H  -5.506994  -1.151019   1.928773
H  -3.466540  -1.200070  -0.191956

