%chk=/home/boittier/MDCM/nms_sampling/methanol_geom.xyz.dir/methanol_3248.chk
%nproc=8
%mem=16000MB
#p B2PLYPD3/Def2QZVP 

methanol

0 1
C  -5.208778  -1.282277   0.936384
O  -3.750245  -1.116941   0.877381
H  -5.572783  -2.109350   0.546024
H  -5.629108  -0.448741   0.345119
H  -5.378792  -1.110394   1.765251
H  -3.482614  -1.174099  -0.379401

