%chk=/home/boittier/MDCM/nms_sampling/methanol_geom.xyz.dir/methanol_2332.chk
%nproc=8
%mem=16000MB
#p B2PLYPD3/Def2QZVP 

methanol

0 1
C  -5.185546  -1.251075   0.926011
O  -3.762535  -1.124150   0.874110
H  -5.520862  -2.193379   0.577567
H  -5.611340  -0.527600   0.333380
H  -5.528056  -1.143073   1.837600
H  -3.486440  -1.225737  -0.297062

