%chk=/home/boittier/MDCM/nms_sampling/methanol_geom.xyz.dir/methanol_137.chk
%nproc=8
%mem=16000MB
#p B2PLYPD3/Def2QZVP 

methanol

0 1
C  -5.180286  -1.261773   0.911903
O  -3.770286  -1.120943   0.871788
H  -5.490055  -2.168803   0.564193
H  -5.679040  -0.500054   0.359211
H  -5.424994  -1.144396   1.922146
H  -3.488586  -1.200361  -0.191905
