%chk=/home/boittier/MDCM/nms_sampling/methanol_geom.xyz.dir/methanol_2678.chk
%nproc=8
%mem=16000MB
#p B2PLYPD3/Def2QZVP 

methanol

0 1
C  -5.154038  -1.256065   0.920994
O  -3.785906  -1.118913   0.875457
H  -5.572270  -2.151946   0.491998
H  -5.572675  -0.633009   0.411303
H  -5.388050  -1.125054   1.925104
H  -3.613269  -1.195099  -0.345465

