%chk=/home/boittier/MDCM/nms_sampling/methanol_geom.xyz.dir/methanol_1187.chk
%nproc=8
%mem=16000MB
#p B2PLYPD3/Def2QZVP 

methanol

0 1
C  -5.185245  -1.252319   0.915906
O  -3.764926  -1.124369   0.864962
H  -5.488501  -2.232694   0.570177
H  -5.647800  -0.482259   0.350140
H  -5.491399  -1.149106   1.917936
H  -3.483963  -1.206656  -0.117888
