%chk=/home/boittier/MDCM/nms_sampling/methanol_geom.xyz.dir/methanol_1180.chk
%nproc=8
%mem=16000MB
#p B2PLYPD3/Def2QZVP 

methanol

0 1
C  -5.184947  -1.247720   0.915705
O  -3.765827  -1.123179   0.869288
H  -5.500888  -2.212964   0.553819
H  -5.642097  -0.541899   0.357666
H  -5.465783  -1.172067   1.924185
H  -3.494922  -1.212830  -0.186013
