%chk=/home/boittier/MDCM/nms_sampling/methanol_geom.xyz.dir/methanol_1693.chk
%nproc=8
%mem=16000MB
#p B2PLYPD3/Def2QZVP 

methanol

0 1
C  -5.191404  -1.270279   0.920385
O  -3.759419  -1.116657   0.847422
H  -5.568030  -2.207986   0.564031
H  -5.654326  -0.423093   0.270884
H  -5.425174  -1.131354   2.030823
H  -3.477478  -1.222405   0.085033

