%chk=/home/boittier/MDCM/nms_sampling/methanol_geom.xyz.dir/methanol_758.chk
%nproc=8
%mem=16000MB
#p B2PLYPD3/Def2QZVP 

methanol

0 1
C  -5.191538  -1.252936   0.906822
O  -3.760310  -1.121172   0.860195
H  -5.510552  -2.256100   0.562332
H  -5.711156  -0.496480   0.359449
H  -5.430622  -1.157986   1.996096
H  -3.462810  -1.200357  -0.014300
