%chk=/home/boittier/MDCM/nms_sampling/methanol_geom.xyz.dir/methanol_3090.chk
%nproc=8
%mem=16000MB
#p B2PLYPD3/Def2QZVP 

methanol

0 1
C  -5.215832  -1.249513   0.918860
O  -3.750295  -1.122603   0.818165
H  -5.598238  -2.401686   0.463437
H  -5.614184  -0.406583   0.345090
H  -5.341123  -1.167766   2.174548
H  -3.440890  -1.147314   0.465742
