%chk=/home/boittier/MDCM/nms_sampling/methanol_geom.xyz.dir/methanol_665.chk
%nproc=8
%mem=16000MB
#p B2PLYPD3/Def2QZVP 

methanol

0 1
C  -5.192602  -1.257873   0.910682
O  -3.762465  -1.123346   0.871504
H  -5.493557  -2.168434   0.562332
H  -5.673898  -0.513922   0.361450
H  -5.448649  -1.146141   1.937460
H  -3.447958  -1.193540  -0.189240
