%chk=/home/boittier/MDCM/nms_sampling/methanol_geom.xyz.dir/methanol_901.chk
%nproc=8
%mem=16000MB
#p B2PLYPD3/Def2QZVP 

methanol

0 1
C  -5.184297  -1.257236   0.910087
O  -3.762776  -1.120316   0.855084
H  -5.500636  -2.264139   0.530808
H  -5.744719  -0.434972   0.358934
H  -5.442174  -1.172618   1.990479
H  -3.469305  -1.204694   0.069381
