%chk=/home/boittier/MDCM/nms_sampling/methanol_geom.xyz.dir/methanol_3357.chk
%nproc=8
%mem=16000MB
#p B2PLYPD3/Def2QZVP 

methanol

0 1
C  -5.161724  -1.252549   0.905872
O  -3.783477  -1.117015   0.858651
H  -5.471475  -2.280742   0.532254
H  -5.709048  -0.555289   0.344477
H  -5.406052  -1.086829   2.034972
H  -3.516052  -1.251572   0.025225
