%chk=/home/boittier/MDCM/nms_sampling/methanol_geom.xyz.dir/methanol_3445.chk
%nproc=8
%mem=16000MB
#p B2PLYPD3/Def2QZVP 

methanol

0 1
C  -5.144022  -1.261052   0.907166
O  -3.778817  -1.121313   0.843848
H  -5.500697  -2.178779   0.552289
H  -5.712954  -0.410064   0.256066
H  -5.539521  -1.223858   2.134830
H  -3.606081  -1.211801   0.217693

