%chk=/home/boittier/MDCM/nms_sampling/methanol_geom.xyz.dir/methanol_2730.chk
%nproc=8
%mem=16000MB
#p B2PLYPD3/Def2QZVP 

methanol

0 1
C  -5.177903  -1.246520   0.900959
O  -3.758377  -1.122116   0.851117
H  -5.403243  -2.305869   0.561931
H  -5.802681  -0.413073   0.310266
H  -5.580498  -1.204502   2.037058
H  -3.514142  -1.253500   0.212184

