%chk=/home/boittier/MDCM/nms_sampling/methanol_geom.xyz.dir/methanol_452.chk
%nproc=8
%mem=16000MB
#p B2PLYPD3/Def2QZVP 

methanol

0 1
C  -5.186884  -1.259348   0.910696
O  -3.761718  -1.119672   0.873528
H  -5.499471  -2.199195   0.593353
H  -5.692499  -0.502727   0.363334
H  -5.454898  -1.143061   1.896548
H  -3.497195  -1.217455  -0.211680

