%chk=/home/boittier/MDCM/nms_sampling/methanol_geom.xyz.dir/methanol_2923.chk
%nproc=8
%mem=16000MB
#p B2PLYPD3/Def2QZVP 

methanol

0 1
C  -5.168446  -1.251767   0.927600
O  -3.764375  -1.118607   0.889595
H  -5.611614  -2.050960   0.568583
H  -5.542703  -0.600292   0.388542
H  -5.559664  -1.247408   1.806379
H  -3.597468  -1.271685  -0.586874

