%chk=/home/boittier/MDCM/nms_sampling/methanol_geom.xyz.dir/methanol_2739.chk
%nproc=8
%mem=16000MB
#p B2PLYPD3/Def2QZVP 

methanol

0 1
C  -5.189852  -1.276728   0.913605
O  -3.752492  -1.117393   0.880030
H  -5.671339  -2.113055   0.608942
H  -5.662615  -0.524629   0.412683
H  -5.416663  -1.104707   1.876793
H  -3.499716  -1.158770  -0.397239
