%chk=/home/boittier/MDCM/nms_sampling/methanol_geom.xyz.dir/methanol_2718.chk
%nproc=8
%mem=16000MB
#p B2PLYPD3/Def2QZVP 

methanol

0 1
C  -5.161589  -1.229984   0.933874
O  -3.787633  -1.127146   0.892139
H  -5.528700  -2.235429   0.560199
H  -5.576736  -0.670037   0.390914
H  -5.443689  -1.161117   1.698481
H  -3.489300  -1.209135  -0.583668
