%chk=/home/boittier/MDCM/nms_sampling/methanol_geom.xyz.dir/methanol_1677.chk
%nproc=8
%mem=16000MB
#p B2PLYPD3/Def2QZVP 

methanol

0 1
C  -5.196997  -1.248227   0.907232
O  -3.759151  -1.126476   0.872020
H  -5.474775  -2.242095   0.567906
H  -5.715043  -0.504461   0.398469
H  -5.436255  -1.178243   1.904073
H  -3.441259  -1.158276  -0.162495

