%chk=/home/boittier/MDCM/nms_sampling/methanol_geom.xyz.dir/methanol_2381.chk
%nproc=8
%mem=16000MB
#p B2PLYPD3/Def2QZVP 

methanol

0 1
C  -5.178831  -1.254232   0.921901
O  -3.766880  -1.120714   0.862473
H  -5.556239  -2.201689   0.513020
H  -5.607448  -0.533144   0.362724
H  -5.441507  -1.167803   1.954673
H  -3.551054  -1.200400  -0.143622
