%chk=/home/boittier/MDCM/nms_sampling/methanol_geom.xyz.dir/methanol_332.chk
%nproc=8
%mem=16000MB
#p B2PLYPD3/Def2QZVP 

methanol

0 1
C  -5.181060  -1.252687   0.908980
O  -3.768176  -1.126199   0.857474
H  -5.458256  -2.223565   0.543965
H  -5.657816  -0.464330   0.347900
H  -5.495250  -1.160860   2.011087
H  -3.494547  -1.189840   0.018586
