%chk=/home/boittier/MDCM/nms_sampling/methanol_geom.xyz.dir/methanol_2361.chk
%nproc=8
%mem=16000MB
#p B2PLYPD3/Def2QZVP 

methanol

0 1
C  -5.199476  -1.247838   0.907959
O  -3.755266  -1.124877   0.883211
H  -5.521325  -2.207030   0.606247
H  -5.708069  -0.572483   0.396466
H  -5.439154  -1.163979   1.857063
H  -3.434256  -1.169078  -0.343779
