%chk=/home/boittier/MDCM/nms_sampling/methanol_geom.xyz.dir/methanol_363.chk
%nproc=8
%mem=16000MB
#p B2PLYPD3/Def2QZVP 

methanol

0 1
C  -5.174814  -1.247424   0.918493
O  -3.774140  -1.125343   0.866466
H  -5.526538  -2.211871   0.539782
H  -5.621311  -0.541433   0.360616
H  -5.457737  -1.163299   1.935143
H  -3.483163  -1.192461  -0.172946
