%chk=/home/boittier/MDCM/nms_sampling/methanol_geom.xyz.dir/methanol_2256.chk
%nproc=8
%mem=16000MB
#p B2PLYPD3/Def2QZVP 

methanol

0 1
C  -5.178533  -1.260064   0.924835
O  -3.767968  -1.124932   0.865742
H  -5.544074  -2.186756   0.532227
H  -5.701839  -0.446042   0.339804
H  -5.481969  -1.157536   1.878078
H  -3.408520  -1.185106  -0.148255

