%chk=/home/boittier/MDCM/nms_sampling/methanol_geom.xyz.dir/methanol_1445.chk
%nproc=8
%mem=16000MB
#p B2PLYPD3/Def2QZVP 

methanol

0 1
C  -5.187057  -1.255450   0.908632
O  -3.761781  -1.124721   0.875705
H  -5.530035  -2.130561   0.563948
H  -5.687657  -0.539728   0.372126
H  -5.494651  -1.164758   1.943695
H  -3.425455  -1.196199  -0.253681
