%chk=/home/boittier/MDCM/nms_sampling/methanol_geom.xyz.dir/methanol_2563.chk
%nproc=8
%mem=16000MB
#p B2PLYPD3/Def2QZVP 

methanol

0 1
C  -5.173251  -1.244847   0.895821
O  -3.787900  -1.134121   0.885302
H  -5.382697  -2.130165   0.643378
H  -5.611234  -0.530234   0.396967
H  -5.434725  -1.203438   1.912284
H  -3.451502  -1.138338  -0.329224

