%chk=/home/boittier/MDCM/nms_sampling/methanol_geom.xyz.dir/methanol_1516.chk
%nproc=8
%mem=16000MB
#p B2PLYPD3/Def2QZVP 

methanol

0 1
C  -5.193352  -1.266134   0.910132
O  -3.756085  -1.119821   0.874090
H  -5.463218  -2.168189   0.608384
H  -5.703408  -0.485185   0.322969
H  -5.459546  -1.131957   1.904005
H  -3.527754  -1.199136  -0.197723
