%chk=/home/boittier/MDCM/nms_sampling/methanol_geom.xyz.dir/methanol_3385.chk
%nproc=8
%mem=16000MB
#p B2PLYPD3/Def2QZVP 

methanol

0 1
C  -5.197523  -1.258953   0.922714
O  -3.747391  -1.118765   0.878336
H  -5.723565  -2.131465   0.576405
H  -5.637320  -0.592171   0.393651
H  -5.486011  -1.140006   1.876302
H  -3.402953  -1.220184  -0.427014
