%chk=/home/boittier/MDCM/nms_sampling/methanol_geom.xyz.dir/methanol_3244.chk
%nproc=8
%mem=16000MB
#p B2PLYPD3/Def2QZVP 

methanol

0 1
C  -5.217638  -1.251496   0.895866
O  -3.750430  -1.125850   0.852597
H  -5.426189  -2.242073   0.563180
H  -5.716935  -0.519896   0.297610
H  -5.469370  -1.090149   2.136111
H  -3.358074  -1.203499   0.153812
