%chk=/home/boittier/MDCM/nms_sampling/methanol_geom.xyz.dir/methanol_2005.chk
%nproc=8
%mem=16000MB
#p B2PLYPD3/Def2QZVP 

methanol

0 1
C  -5.185078  -1.266747   0.921971
O  -3.754539  -1.115009   0.851613
H  -5.580894  -2.248877   0.479150
H  -5.746122  -0.424714   0.359558
H  -5.451302  -1.154770   1.968927
H  -3.499561  -1.223055   0.058142
