%chk=/home/boittier/MDCM/nms_sampling/methanol_geom.xyz.dir/methanol_239.chk
%nproc=8
%mem=16000MB
#p B2PLYPD3/Def2QZVP 

methanol

0 1
C  -5.173585  -1.256939   0.909680
O  -3.767854  -1.118587   0.861264
H  -5.496604  -2.230036   0.524920
H  -5.710603  -0.490526   0.369518
H  -5.466301  -1.154641   1.986370
H  -3.529011  -1.231008  -0.029414
