%chk=/home/boittier/MDCM/nms_sampling/methanol_geom.xyz.dir/methanol_1999.chk
%nproc=8
%mem=16000MB
#p B2PLYPD3/Def2QZVP 

methanol

0 1
C  -5.176318  -1.247024   0.921000
O  -3.762770  -1.127029   0.872518
H  -5.544950  -2.143452   0.548613
H  -5.617764  -0.531626   0.354667
H  -5.561821  -1.223275   1.902622
H  -3.519223  -1.196533  -0.272376

