%chk=/home/boittier/MDCM/nms_sampling/methanol_geom.xyz.dir/methanol_2326.chk
%nproc=8
%mem=16000MB
#p B2PLYPD3/Def2QZVP 

methanol

0 1
C  -5.178083  -1.258197   0.915377
O  -3.764014  -1.117143   0.844032
H  -5.470226  -2.308754   0.481958
H  -5.757051  -0.391836   0.335858
H  -5.461070  -1.174649   2.018497
H  -3.522105  -1.239335   0.231281
