%chk=/home/boittier/MDCM/nms_sampling/methanol_geom.xyz.dir/methanol_1189.chk
%nproc=8
%mem=16000MB
#p B2PLYPD3/Def2QZVP 

methanol

0 1
C  -5.178307  -1.250258   0.906895
O  -3.764298  -1.123221   0.873456
H  -5.517042  -2.210238   0.565985
H  -5.700024  -0.536115   0.402268
H  -5.500634  -1.158638   1.925547
H  -3.486216  -1.207507  -0.207195

