%chk=/home/boittier/MDCM/nms_sampling/methanol_geom.xyz.dir/methanol_329.chk
%nproc=8
%mem=16000MB
#p B2PLYPD3/Def2QZVP 

methanol

0 1
C  -5.175486  -1.260512   0.910100
O  -3.767654  -1.121095   0.859769
H  -5.505602  -2.228521   0.579064
H  -5.748064  -0.420142   0.330583
H  -5.460121  -1.177350   1.960555
H  -3.464307  -1.203158   0.003327
