%chk=/home/boittier/MDCM/nms_sampling/methanol_geom.xyz.dir/methanol_30.chk
%nproc=8
%mem=16000MB
#p B2PLYPD3/Def2QZVP 

methanol

0 1
C  -5.177639  -1.255282   0.917001
O  -3.767657  -1.124021   0.849584
H  -5.549507  -2.256965   0.499399
H  -5.692108  -0.455416   0.350131
H  -5.462308  -1.148893   2.019765
H  -3.452375  -1.180517   0.086812

