%chk=/home/boittier/MDCM/nms_sampling/methanol_geom.xyz.dir/methanol_1078.chk
%nproc=8
%mem=16000MB
#p B2PLYPD3/Def2QZVP 

methanol

0 1
C  -5.174842  -1.254934   0.922370
O  -3.771931  -1.122327   0.862898
H  -5.501269  -2.220792   0.545394
H  -5.643045  -0.470264   0.334790
H  -5.448246  -1.179872   1.907497
H  -3.527069  -1.200168  -0.110428

