%chk=/home/boittier/MDCM/nms_sampling/methanol_geom.xyz.dir/methanol_2884.chk
%nproc=8
%mem=16000MB
#p B2PLYPD3/Def2QZVP 

methanol

0 1
C  -5.176343  -1.240348   0.933662
O  -3.761875  -1.124673   0.884140
H  -5.557650  -2.124015   0.545533
H  -5.593513  -0.543735   0.367615
H  -5.603668  -1.278150   1.761200
H  -3.504705  -1.262628  -0.477135

