%chk=/home/boittier/MDCM/nms_sampling/methanol_geom.xyz.dir/methanol_814.chk
%nproc=8
%mem=16000MB
#p B2PLYPD3/Def2QZVP 

methanol

0 1
C  -5.175177  -1.252559   0.909284
O  -3.771623  -1.125905   0.855525
H  -5.468924  -2.255436   0.551587
H  -5.712405  -0.429205   0.344017
H  -5.467405  -1.182440   1.991647
H  -3.470423  -1.177286   0.064660
