%chk=/home/boittier/MDCM/nms_sampling/methanol_geom.xyz.dir/methanol_746.chk
%nproc=8
%mem=16000MB
#p B2PLYPD3/Def2QZVP 

methanol

0 1
C  -5.176864  -1.247625   0.921665
O  -3.773322  -1.125375   0.849129
H  -5.476975  -2.285417   0.524378
H  -5.651867  -0.440531   0.306855
H  -5.472287  -1.176029   1.981082
H  -3.475386  -1.205366   0.097703

