%chk=/home/boittier/MDCM/nms_sampling/methanol_geom.xyz.dir/methanol_1622.chk
%nproc=8
%mem=16000MB
#p B2PLYPD3/Def2QZVP 

methanol

0 1
C  -5.194158  -1.256567   0.905405
O  -3.753466  -1.125270   0.846152
H  -5.486522  -2.280336   0.550282
H  -5.769674  -0.369607   0.334124
H  -5.485058  -1.198807   2.045818
H  -3.442371  -1.163090   0.221089
