%chk=/home/boittier/MDCM/nms_sampling/methanol_geom.xyz.dir/methanol_2800.chk
%nproc=8
%mem=16000MB
#p B2PLYPD3/Def2QZVP 

methanol

0 1
C  -5.174046  -1.237209   0.895133
O  -3.759138  -1.125137   0.892980
H  -5.539009  -2.117224   0.567206
H  -5.676608  -0.663437   0.485938
H  -5.553003  -1.253640   1.924726
H  -3.565134  -1.200022  -0.475225
