%chk=/home/boittier/MDCM/nms_sampling/methanol_geom.xyz.dir/methanol_1584.chk
%nproc=8
%mem=16000MB
#p B2PLYPD3/Def2QZVP 

methanol

0 1
C  -5.196637  -1.256122   0.921242
O  -3.758105  -1.121838   0.843446
H  -5.543978  -2.276184   0.520993
H  -5.660758  -0.455324   0.288732
H  -5.404214  -1.159901   2.043701
H  -3.479392  -1.172676   0.152116
