%chk=/home/boittier/MDCM/nms_sampling/methanol_geom.xyz.dir/methanol_817.chk
%nproc=8
%mem=16000MB
#p B2PLYPD3/Def2QZVP 

methanol

0 1
C  -5.178399  -1.248357   0.907867
O  -3.770291  -1.123736   0.870846
H  -5.495889  -2.220564   0.581555
H  -5.683844  -0.531498   0.370278
H  -5.458825  -1.166923   1.936335
H  -3.470222  -1.204961  -0.170652

