%chk=/home/boittier/MDCM/nms_sampling/methanol_geom.xyz.dir/methanol_1453.chk
%nproc=8
%mem=16000MB
#p B2PLYPD3/Def2QZVP 

methanol

0 1
C  -5.186646  -1.249814   0.915401
O  -3.767622  -1.124817   0.874137
H  -5.559359  -2.161874   0.527137
H  -5.661618  -0.573886   0.387974
H  -5.415974  -1.178664   1.927247
H  -3.417343  -1.174777  -0.270365

