%chk=/home/boittier/MDCM/nms_sampling/methanol_geom.xyz.dir/methanol_621.chk
%nproc=8
%mem=16000MB
#p B2PLYPD3/Def2QZVP 

methanol

0 1
C  -5.169998  -1.249335   0.916896
O  -3.771898  -1.124402   0.848585
H  -5.530462  -2.272590   0.497815
H  -5.671417  -0.462742   0.351403
H  -5.480152  -1.175803   2.024312
H  -3.496489  -1.192591   0.100263
