%chk=/home/boittier/MDCM/nms_sampling/methanol_geom.xyz.dir/methanol_1138.chk
%nproc=8
%mem=16000MB
#p B2PLYPD3/Def2QZVP 

methanol

0 1
C  -5.182418  -1.251711   0.906389
O  -3.763667  -1.122529   0.873237
H  -5.547060  -2.198295   0.577918
H  -5.715412  -0.541319   0.388537
H  -5.459323  -1.168266   1.938538
H  -3.444619  -1.197785  -0.209580
