%chk=/home/boittier/MDCM/nms_sampling/methanol_geom.xyz.dir/methanol_1343.chk
%nproc=8
%mem=16000MB
#p B2PLYPD3/Def2QZVP 

methanol

0 1
C  -5.166584  -1.250399   0.923532
O  -3.776509  -1.126905   0.846390
H  -5.475814  -2.284030   0.507854
H  -5.659596  -0.392477   0.318646
H  -5.535931  -1.165220   1.971532
H  -3.470506  -1.213413   0.136029
