%chk=/home/boittier/MDCM/nms_sampling/methanol_geom.xyz.dir/methanol_3423.chk
%nproc=8
%mem=16000MB
#p B2PLYPD3/Def2QZVP 

methanol

0 1
C  -5.158232  -1.260695   0.924603
O  -3.777245  -1.117713   0.838017
H  -5.551511  -2.212136   0.546219
H  -5.642621  -0.391629   0.221180
H  -5.496240  -1.214037   2.076204
H  -3.534356  -1.263076   0.209375
