%chk=/home/boittier/MDCM/nms_sampling/methanol_geom.xyz.dir/methanol_2962.chk
%nproc=8
%mem=16000MB
#p B2PLYPD3/Def2QZVP 

methanol

0 1
C  -5.179226  -1.254843   0.908937
O  -3.753217  -1.119742   0.897606
H  -5.518269  -2.157757   0.577154
H  -5.857841  -0.584114   0.403209
H  -5.465089  -1.204610   1.767597
H  -3.525099  -1.169640  -0.479553

