%chk=/home/boittier/MDCM/nms_sampling/methanol_geom.xyz.dir/methanol_1215.chk
%nproc=8
%mem=16000MB
#p B2PLYPD3/Def2QZVP 

methanol

0 1
C  -5.184877  -1.258535   0.923793
O  -3.772020  -1.125387   0.849188
H  -5.487136  -2.277614   0.494202
H  -5.683075  -0.426909   0.318749
H  -5.400315  -1.118449   1.969237
H  -3.432603  -1.157090   0.101650

