%chk=/home/boittier/MDCM/nms_sampling/methanol_geom.xyz.dir/methanol_73.chk
%nproc=8
%mem=16000MB
#p B2PLYPD3/Def2QZVP 

methanol

0 1
C  -5.180389  -1.255720   0.919805
O  -3.767720  -1.124720   0.869213
H  -5.551981  -2.198587   0.573819
H  -5.668833  -0.483172   0.354429
H  -5.467023  -1.159905   1.881052
H  -3.433727  -1.185267  -0.204040

