%chk=/home/boittier/MDCM/nms_sampling/methanol_geom.xyz.dir/methanol_1464.chk
%nproc=8
%mem=16000MB
#p B2PLYPD3/Def2QZVP 

methanol

0 1
C  -5.193286  -1.248811   0.924704
O  -3.761497  -1.125860   0.840051
H  -5.476020  -2.338717   0.509695
H  -5.627320  -0.378445   0.325879
H  -5.482217  -1.175983   1.982303
H  -3.486409  -1.193920   0.207920
