%chk=/home/boittier/MDCM/nms_sampling/methanol_geom.xyz.dir/methanol_3328.chk
%nproc=8
%mem=16000MB
#p B2PLYPD3/Def2QZVP 

methanol

0 1
C  -5.187703  -1.262815   0.921154
O  -3.759142  -1.118137   0.877337
H  -5.478378  -2.083768   0.563446
H  -5.529890  -0.554324   0.332218
H  -5.510637  -1.161123   1.904512
H  -3.651297  -1.249207  -0.349529
