%chk=/home/boittier/MDCM/nms_sampling/methanol_geom.xyz.dir/methanol_2138.chk
%nproc=8
%mem=16000MB
#p B2PLYPD3/Def2QZVP 

methanol

0 1
C  -5.184012  -1.248325   0.921776
O  -3.761426  -1.123683   0.841380
H  -5.552366  -2.323240   0.472436
H  -5.712509  -0.403729   0.358628
H  -5.488459  -1.196047   2.006480
H  -3.429173  -1.204453   0.199246
