%chk=/home/boittier/MDCM/nms_sampling/methanol_geom.xyz.dir/methanol_922.chk
%nproc=8
%mem=16000MB
#p B2PLYPD3/Def2QZVP 

methanol

0 1
C  -5.180555  -1.258863   0.917648
O  -3.767637  -1.120660   0.866886
H  -5.550382  -2.211591   0.552027
H  -5.676576  -0.517891   0.354059
H  -5.416830  -1.131041   1.923609
H  -3.481243  -1.190156  -0.163123
