%chk=/home/boittier/MDCM/nms_sampling/methanol_geom.xyz.dir/methanol_322.chk
%nproc=8
%mem=16000MB
#p B2PLYPD3/Def2QZVP 

methanol

0 1
C  -5.174973  -1.252921   0.911475
O  -3.771861  -1.119977   0.859071
H  -5.489704  -2.245389   0.549116
H  -5.682288  -0.495285   0.338038
H  -5.436335  -1.165082   1.991018
H  -3.515694  -1.223142  -0.011985
