%chk=/home/boittier/MDCM/nms_sampling/methanol_geom.xyz.dir/methanol_3120.chk
%nproc=8
%mem=16000MB
#p B2PLYPD3/Def2QZVP 

methanol

0 1
C  -5.212878  -1.256451   0.922618
O  -3.752206  -1.122435   0.820450
H  -5.557030  -2.356570   0.573577
H  -5.603968  -0.331160   0.232888
H  -5.437480  -1.152542   2.122749
H  -3.394529  -1.212605   0.439759
