%chk=/home/boittier/MDCM/nms_sampling/methanol_geom.xyz.dir/methanol_762.chk
%nproc=8
%mem=16000MB
#p B2PLYPD3/Def2QZVP 

methanol

0 1
C  -5.176722  -1.257913   0.915406
O  -3.771589  -1.122636   0.853361
H  -5.509200  -2.235255   0.564684
H  -5.630153  -0.441701   0.325306
H  -5.449707  -1.158363   1.996551
H  -3.513488  -1.197311   0.028066
