%chk=/home/boittier/MDCM/nms_sampling/methanol_geom.xyz.dir/methanol_2022.chk
%nproc=8
%mem=16000MB
#p B2PLYPD3/Def2QZVP 

methanol

0 1
C  -5.174472  -1.257438   0.908002
O  -3.769771  -1.127482   0.882168
H  -5.507997  -2.130547   0.617687
H  -5.760408  -0.497809   0.343201
H  -5.491345  -1.175217   1.870536
H  -3.393227  -1.164202  -0.300579
