%chk=/home/boittier/MDCM/nms_sampling/methanol_geom.xyz.dir/methanol_3080.chk
%nproc=8
%mem=16000MB
#p B2PLYPD3/Def2QZVP 

methanol

0 1
C  -5.169747  -1.271971   0.904747
O  -3.765433  -1.116872   0.847133
H  -5.537955  -2.263606   0.621389
H  -5.825280  -0.330883   0.284582
H  -5.415073  -1.189915   2.027816
H  -3.497387  -1.180927   0.210768

