%chk=/home/boittier/MDCM/nms_sampling/methanol_geom.xyz.dir/methanol_1980.chk
%nproc=8
%mem=16000MB
#p B2PLYPD3/Def2QZVP 

methanol

0 1
C  -5.188949  -1.272004   0.924497
O  -3.764839  -1.116892   0.842411
H  -5.528458  -2.269650   0.524268
H  -5.669991  -0.349003   0.309208
H  -5.395960  -1.125696   1.984070
H  -3.473000  -1.214865   0.171025
