%chk=/home/boittier/MDCM/nms_sampling/methanol_geom.xyz.dir/methanol_2618.chk
%nproc=8
%mem=16000MB
#p B2PLYPD3/Def2QZVP 

methanol

0 1
C  -5.183166  -1.235810   0.923614
O  -3.765032  -1.126040   0.827501
H  -5.527271  -2.423427   0.493391
H  -5.570650  -0.463833   0.317185
H  -5.550245  -1.104759   2.092870
H  -3.497223  -1.239594   0.337621

