%chk=/home/boittier/MDCM/nms_sampling/methanol_geom.xyz.dir/methanol_3345.chk
%nproc=8
%mem=16000MB
#p B2PLYPD3/Def2QZVP 

methanol

0 1
C  -5.192902  -1.262237   0.929181
O  -3.758993  -1.118078   0.857790
H  -5.502640  -2.168489   0.568364
H  -5.485141  -0.486261   0.279343
H  -5.484493  -1.152924   1.953621
H  -3.641356  -1.247004  -0.123782
