%chk=/home/boittier/MDCM/nms_sampling/methanol_geom.xyz.dir/methanol_765.chk
%nproc=8
%mem=16000MB
#p B2PLYPD3/Def2QZVP 

methanol

0 1
C  -5.181413  -1.256705   0.909784
O  -3.763103  -1.122065   0.872989
H  -5.499170  -2.149029   0.571181
H  -5.673382  -0.514306   0.358578
H  -5.484099  -1.190655   1.938980
H  -3.524395  -1.203780  -0.210802

