%chk=/home/boittier/MDCM/nms_sampling/methanol_geom.xyz.dir/methanol_3310.chk
%nproc=8
%mem=16000MB
#p B2PLYPD3/Def2QZVP 

methanol

0 1
C  -5.213897  -1.280739   0.922322
O  -3.747494  -1.116811   0.891084
H  -5.557294  -2.002282   0.601601
H  -5.596076  -0.555357   0.337230
H  -5.388557  -1.120056   1.823532
H  -3.505316  -1.185007  -0.549341

