%chk=/home/boittier/MDCM/nms_sampling/methanol_geom.xyz.dir/methanol_440.chk
%nproc=8
%mem=16000MB
#p B2PLYPD3/Def2QZVP 

methanol

0 1
C  -5.178190  -1.260566   0.921759
O  -3.769695  -1.120827   0.867312
H  -5.526951  -2.199207   0.563303
H  -5.660708  -0.489646   0.329244
H  -5.426857  -1.145448   1.893658
H  -3.502455  -1.195315  -0.174314

