%chk=/home/boittier/MDCM/nms_sampling/methanol_geom.xyz.dir/methanol_3252.chk
%nproc=8
%mem=16000MB
#p B2PLYPD3/Def2QZVP 

methanol

0 1
C  -5.164403  -1.255479   0.920006
O  -3.766986  -1.115441   0.822645
H  -5.602891  -2.359631   0.452969
H  -5.614019  -0.379122   0.373337
H  -5.518965  -1.160867   2.137920
H  -3.588854  -1.273178   0.398782

