%chk=/home/boittier/MDCM/nms_sampling/methanol_geom.xyz.dir/methanol_531.chk
%nproc=8
%mem=16000MB
#p B2PLYPD3/Def2QZVP 

methanol

0 1
C  -5.176108  -1.256425   0.921401
O  -3.765947  -1.118865   0.857471
H  -5.511889  -2.254801   0.508918
H  -5.688932  -0.459140   0.349287
H  -5.472795  -1.162971   1.936145
H  -3.529198  -1.231369  -0.017178

