%chk=/home/boittier/MDCM/nms_sampling/methanol_geom.xyz.dir/methanol_493.chk
%nproc=8
%mem=16000MB
#p B2PLYPD3/Def2QZVP 

methanol

0 1
C  -5.183232  -1.252249   0.914218
O  -3.764977  -1.122112   0.862433
H  -5.511699  -2.232134   0.553634
H  -5.650382  -0.495853   0.360456
H  -5.459770  -1.171647   1.954456
H  -3.513197  -1.205544  -0.088239
