%chk=/home/boittier/MDCM/nms_sampling/methanol_geom.xyz.dir/methanol_2317.chk
%nproc=8
%mem=16000MB
#p B2PLYPD3/Def2QZVP 

methanol

0 1
C  -5.191608  -1.257294   0.910475
O  -3.766630  -1.126681   0.860638
H  -5.456507  -2.230311   0.579262
H  -5.703387  -0.452983   0.313019
H  -5.450970  -1.118880   1.968935
H  -3.398352  -1.175136  -0.007781

