%chk=/home/boittier/MDCM/nms_sampling/methanol_geom.xyz.dir/methanol_1508.chk
%nproc=8
%mem=16000MB
#p B2PLYPD3/Def2QZVP 

methanol

0 1
C  -5.187470  -1.253858   0.919037
O  -3.768643  -1.128526   0.865757
H  -5.559080  -2.187209   0.609939
H  -5.600223  -0.494296   0.323699
H  -5.440859  -1.158401   1.923669
H  -3.422888  -1.148557  -0.187607

