%chk=/home/boittier/MDCM/nms_sampling/methanol_geom.xyz.dir/methanol_272.chk
%nproc=8
%mem=16000MB
#p B2PLYPD3/Def2QZVP 

methanol

0 1
C  -5.174656  -1.253162   0.913294
O  -3.768721  -1.123316   0.853024
H  -5.505666  -2.276624   0.518098
H  -5.748711  -0.451891   0.338051
H  -5.473976  -1.151311   1.997391
H  -3.447275  -1.197437   0.090841

