%chk=/home/boittier/MDCM/nms_sampling/methanol_geom.xyz.dir/methanol_3165.chk
%nproc=8
%mem=16000MB
#p B2PLYPD3/Def2QZVP 

methanol

0 1
C  -5.166150  -1.253753   0.920266
O  -3.779654  -1.120668   0.884523
H  -5.409818  -2.233327   0.571273
H  -5.667330  -0.571986   0.354022
H  -5.424199  -1.094214   1.781221
H  -3.604530  -1.206372  -0.356780
