%chk=/home/boittier/MDCM/nms_sampling/methanol_geom.xyz.dir/methanol_2413.chk
%nproc=8
%mem=16000MB
#p B2PLYPD3/Def2QZVP 

methanol

0 1
C  -5.174412  -1.256432   0.891682
O  -3.781954  -1.129521   0.835533
H  -5.368255  -2.274370   0.562963
H  -5.654605  -0.332158   0.341268
H  -5.503251  -1.137760   2.181196
H  -3.434950  -1.199649   0.399324

