%chk=/home/boittier/MDCM/nms_sampling/methanol_geom.xyz.dir/methanol_3521.chk
%nproc=8
%mem=16000MB
#p B2PLYPD3/Def2QZVP 

methanol

0 1
C  -5.163732  -1.276448   0.912605
O  -3.769444  -1.115459   0.894251
H  -5.592665  -2.022785   0.536654
H  -5.731365  -0.577189   0.424805
H  -5.419372  -1.143848   1.843130
H  -3.540136  -1.189484  -0.529224

