%chk=/home/boittier/MDCM/nms_sampling/methanol_geom.xyz.dir/methanol_1121.chk
%nproc=8
%mem=16000MB
#p B2PLYPD3/Def2QZVP 

methanol

0 1
C  -5.182361  -1.255093   0.918030
O  -3.769063  -1.124774   0.862045
H  -5.524724  -2.189315   0.551856
H  -5.640284  -0.483536   0.332029
H  -5.451764  -1.174140   1.957477
H  -3.459869  -1.185216  -0.101144

