%chk=/home/boittier/MDCM/nms_sampling/methanol_geom.xyz.dir/methanol_2768.chk
%nproc=8
%mem=16000MB
#p B2PLYPD3/Def2QZVP 

methanol

0 1
C  -5.196180  -1.272990   0.904753
O  -3.741619  -1.118795   0.832801
H  -5.455800  -2.273098   0.476173
H  -5.892253  -0.295388   0.283980
H  -5.505857  -1.179407   2.137089
H  -3.489751  -1.180151   0.475809

