%chk=/home/boittier/MDCM/nms_sampling/methanol_geom.xyz.dir/methanol_1559.chk
%nproc=8
%mem=16000MB
#p B2PLYPD3/Def2QZVP 

methanol

0 1
C  -5.181090  -1.236845   0.915004
O  -3.764870  -1.124900   0.841223
H  -5.479369  -2.385514   0.521857
H  -5.686474  -0.441452   0.336011
H  -5.510586  -1.188162   2.025566
H  -3.490940  -1.223203   0.236366

