%chk=/home/boittier/MDCM/nms_sampling/methanol_geom.xyz.dir/methanol_86.chk
%nproc=8
%mem=16000MB
#p B2PLYPD3/Def2QZVP 

methanol

0 1
C  -5.177067  -1.251191   0.919056
O  -3.765296  -1.120494   0.847938
H  -5.524186  -2.309843   0.527078
H  -5.690779  -0.437674   0.331108
H  -5.473734  -1.174710   1.987056
H  -3.514536  -1.220809   0.116271
