%chk=/home/boittier/MDCM/nms_sampling/methanol_geom.xyz.dir/methanol_3475.chk
%nproc=8
%mem=16000MB
#p B2PLYPD3/Def2QZVP 

methanol

0 1
C  -5.208360  -1.281310   0.910162
O  -3.747660  -1.115510   0.882660
H  -5.617278  -2.086809   0.677507
H  -5.606466  -0.545309   0.353033
H  -5.377164  -1.068849   1.894570
H  -3.512465  -1.174866  -0.427752

