%chk=/home/boittier/MDCM/nms_sampling/methanol_geom.xyz.dir/methanol_1316.chk
%nproc=8
%mem=16000MB
#p B2PLYPD3/Def2QZVP 

methanol

0 1
C  -5.197613  -1.258508   0.921353
O  -3.758343  -1.123666   0.863288
H  -5.528305  -2.190260   0.574491
H  -5.614423  -0.492084   0.310140
H  -5.474838  -1.128150   1.934960
H  -3.453488  -1.200767  -0.138367

