%chk=/home/boittier/MDCM/nms_sampling/methanol_geom.xyz.dir/methanol_2096.chk
%nproc=8
%mem=16000MB
#p B2PLYPD3/Def2QZVP 

methanol

0 1
C  -5.181543  -1.259849   0.900466
O  -3.767881  -1.125001   0.883820
H  -5.524455  -2.095909   0.603732
H  -5.694619  -0.535021   0.407136
H  -5.470790  -1.160651   1.924395
H  -3.412938  -1.184525  -0.344127

