%chk=/home/boittier/MDCM/nms_sampling/methanol_geom.xyz.dir/methanol_1661.chk
%nproc=8
%mem=16000MB
#p B2PLYPD3/Def2QZVP 

methanol

0 1
C  -5.171962  -1.245077   0.898945
O  -3.776852  -1.126733   0.848905
H  -5.464561  -2.311463   0.545750
H  -5.706265  -0.483800   0.362679
H  -5.443923  -1.143885   2.093735
H  -3.466270  -1.174170   0.177780

