%chk=/home/boittier/MDCM/nms_sampling/methanol_geom.xyz.dir/methanol_1082.chk
%nproc=8
%mem=16000MB
#p B2PLYPD3/Def2QZVP 

methanol

0 1
C  -5.172883  -1.257495   0.917110
O  -3.768637  -1.120902   0.867971
H  -5.562533  -2.177574   0.568800
H  -5.647681  -0.483741   0.368538
H  -5.473281  -1.192130   1.914107
H  -3.509655  -1.212727  -0.195085
