%chk=/home/boittier/MDCM/nms_sampling/methanol_geom.xyz.dir/methanol_3274.chk
%nproc=8
%mem=16000MB
#p B2PLYPD3/Def2QZVP 

methanol

0 1
C  -5.139631  -1.239719   0.906088
O  -3.786591  -1.127886   0.835004
H  -5.455938  -2.449185   0.488777
H  -5.783400  -0.401015   0.377627
H  -5.537484  -1.127617   2.066601
H  -3.526619  -1.182024   0.394946

