%chk=/home/boittier/MDCM/nms_sampling/methanol_geom.xyz.dir/methanol_502.chk
%nproc=8
%mem=16000MB
#p B2PLYPD3/Def2QZVP 

methanol

0 1
C  -5.177346  -1.256203   0.907072
O  -3.771067  -1.122577   0.858170
H  -5.467393  -2.222573   0.567966
H  -5.665464  -0.454374   0.345223
H  -5.448952  -1.176793   2.007997
H  -3.521603  -1.199222   0.012299
