%chk=/home/boittier/MDCM/nms_sampling/methanol_geom.xyz.dir/methanol_579.chk
%nproc=8
%mem=16000MB
#p B2PLYPD3/Def2QZVP 

methanol

0 1
C  -5.180409  -1.254048   0.918324
O  -3.763957  -1.124229   0.870751
H  -5.541718  -2.196558   0.588162
H  -5.684314  -0.479496   0.346499
H  -5.498276  -1.182292   1.874200
H  -3.455731  -1.197294  -0.211050

