%chk=/home/boittier/MDCM/nms_sampling/methanol_geom.xyz.dir/methanol_223.chk
%nproc=8
%mem=16000MB
#p B2PLYPD3/Def2QZVP 

methanol

0 1
C  -5.180751  -1.260638   0.911853
O  -3.769323  -1.119489   0.852111
H  -5.491194  -2.282814   0.538533
H  -5.724618  -0.432591   0.339707
H  -5.401432  -1.132274   1.996832
H  -3.478826  -1.199995   0.102493
