%chk=/home/boittier/MDCM/nms_sampling/methanol_geom.xyz.dir/methanol_2984.chk
%nproc=8
%mem=16000MB
#p B2PLYPD3/Def2QZVP 

methanol

0 1
C  -5.151301  -1.248288   0.914090
O  -3.787088  -1.135147   0.842865
H  -5.525708  -2.235442   0.532459
H  -5.610075  -0.360135   0.361883
H  -5.586028  -1.196323   2.047255
H  -3.421278  -1.163517   0.161315

