%chk=/home/boittier/MDCM/nms_sampling/methanol_geom.xyz.dir/methanol_2866.chk
%nproc=8
%mem=16000MB
#p B2PLYPD3/Def2QZVP 

methanol

0 1
C  -5.202983  -1.256667   0.892435
O  -3.753119  -1.126143   0.886983
H  -5.508033  -2.083277   0.668461
H  -5.729773  -0.552634   0.362754
H  -5.489833  -1.176928   1.950542
H  -3.360230  -1.184450  -0.348825

