%chk=/home/boittier/MDCM/nms_sampling/methanol_geom.xyz.dir/methanol_778.chk
%nproc=8
%mem=16000MB
#p B2PLYPD3/Def2QZVP 

methanol

0 1
C  -5.185887  -1.259083   0.912981
O  -3.763087  -1.120105   0.868810
H  -5.520250  -2.187307   0.576215
H  -5.642567  -0.497054   0.368132
H  -5.466232  -1.150844   1.928343
H  -3.503843  -1.223728  -0.181811
