%chk=/home/boittier/MDCM/nms_sampling/methanol_geom.xyz.dir/methanol_1884.chk
%nproc=8
%mem=16000MB
#p B2PLYPD3/Def2QZVP 

methanol

0 1
C  -5.171735  -1.249250   0.922445
O  -3.776787  -1.129051   0.871003
H  -5.487767  -2.218929   0.598462
H  -5.602341  -0.480813   0.342690
H  -5.499567  -1.156046   1.840992
H  -3.487757  -1.177869  -0.235396

