%chk=/home/boittier/MDCM/nms_sampling/methanol_geom.xyz.dir/methanol_2914.chk
%nproc=8
%mem=16000MB
#p B2PLYPD3/Def2QZVP 

methanol

0 1
C  -5.205967  -1.243905   0.921740
O  -3.757729  -1.124605   0.882572
H  -5.600343  -2.172477   0.556254
H  -5.562401  -0.698164   0.383598
H  -5.451511  -1.073155   1.882017
H  -3.383677  -1.214124  -0.463100
