%chk=/home/boittier/MDCM/nms_sampling/methanol_geom.xyz.dir/methanol_2412.chk
%nproc=8
%mem=16000MB
#p B2PLYPD3/Def2QZVP 

methanol

0 1
C  -5.152591  -1.257162   0.914220
O  -3.787089  -1.117796   0.881700
H  -5.553500  -2.127954   0.656313
H  -5.541304  -0.546400   0.370898
H  -5.442086  -1.188069   1.863051
H  -3.601583  -1.252239  -0.423339
