%chk=/home/boittier/MDCM/nms_sampling/methanol_geom.xyz.dir/methanol_2683.chk
%nproc=8
%mem=16000MB
#p B2PLYPD3/Def2QZVP 

methanol

0 1
C  -5.178465  -1.259321   0.930337
O  -3.762847  -1.116929   0.878756
H  -5.576919  -2.139286   0.615425
H  -5.563696  -0.458608   0.365501
H  -5.494992  -1.250824   1.764154
H  -3.581235  -1.259906  -0.416191

