%chk=/home/boittier/MDCM/nms_sampling/methanol_geom.xyz.dir/methanol_159.chk
%nproc=8
%mem=16000MB
#p B2PLYPD3/Def2QZVP 

methanol

0 1
C  -5.175239  -1.256545   0.909953
O  -3.771171  -1.122358   0.853273
H  -5.461159  -2.256079   0.571552
H  -5.699936  -0.421203   0.312790
H  -5.452684  -1.176215   2.003603
H  -3.512433  -1.199707   0.092576

