%chk=/home/boittier/MDCM/nms_sampling/methanol_geom.xyz.dir/methanol_491.chk
%nproc=8
%mem=16000MB
#p B2PLYPD3/Def2QZVP 

methanol

0 1
C  -5.175477  -1.260008   0.909504
O  -3.767419  -1.121327   0.874410
H  -5.523917  -2.197661   0.582098
H  -5.728938  -0.503707   0.379410
H  -5.444022  -1.143527   1.895898
H  -3.487775  -1.184657  -0.216197

