%chk=/home/boittier/MDCM/nms_sampling/methanol_geom.xyz.dir/methanol_1863.chk
%nproc=8
%mem=16000MB
#p B2PLYPD3/Def2QZVP 

methanol

0 1
C  -5.176678  -1.256121   0.928665
O  -3.767926  -1.125151   0.875799
H  -5.574480  -2.153371   0.579581
H  -5.693668  -0.486481   0.314547
H  -5.486367  -1.190288   1.812114
H  -3.403936  -1.188081  -0.313576
