%chk=/home/boittier/MDCM/nms_sampling/methanol_geom.xyz.dir/methanol_1186.chk
%nproc=8
%mem=16000MB
#p B2PLYPD3/Def2QZVP 

methanol

0 1
C  -5.184914  -1.258765   0.911967
O  -3.759622  -1.119669   0.854727
H  -5.502997  -2.275860   0.540767
H  -5.743955  -0.440806   0.341537
H  -5.462888  -1.144263   1.982105
H  -3.490722  -1.208965   0.069068
