%chk=/home/boittier/MDCM/nms_sampling/methanol_geom.xyz.dir/methanol_2743.chk
%nproc=8
%mem=16000MB
#p B2PLYPD3/Def2QZVP 

methanol

0 1
C  -5.190099  -1.269106   0.927696
O  -3.749011  -1.107452   0.884232
H  -5.680420  -2.192875   0.545394
H  -5.770580  -0.499612   0.442239
H  -5.369857  -1.200115   1.725292
H  -3.490140  -1.246308  -0.441509
