%chk=/home/boittier/MDCM/nms_sampling/methanol_geom.xyz.dir/methanol_602.chk
%nproc=8
%mem=16000MB
#p B2PLYPD3/Def2QZVP 

methanol

0 1
C  -5.173331  -1.251065   0.916545
O  -3.768644  -1.125899   0.853527
H  -5.554251  -2.258556   0.541030
H  -5.667782  -0.467588   0.346105
H  -5.496281  -1.157515   1.991258
H  -3.471810  -1.178838   0.020091
