%chk=/home/boittier/MDCM/nms_sampling/methanol_geom.xyz.dir/methanol_1951.chk
%nproc=8
%mem=16000MB
#p B2PLYPD3/Def2QZVP 

methanol

0 1
C  -5.188172  -1.263094   0.910314
O  -3.760135  -1.119529   0.880589
H  -5.566312  -2.103547   0.615111
H  -5.695602  -0.548108   0.337815
H  -5.434285  -1.170189   1.911671
H  -3.454581  -1.201480  -0.337791

