%chk=/home/boittier/MDCM/nms_sampling/methanol_geom.xyz.dir/methanol_709.chk
%nproc=8
%mem=16000MB
#p B2PLYPD3/Def2QZVP 

methanol

0 1
C  -5.183979  -1.259643   0.914768
O  -3.760978  -1.118597   0.850238
H  -5.552689  -2.257302   0.528163
H  -5.678034  -0.445753   0.352818
H  -5.458471  -1.151945   2.017044
H  -3.500550  -1.220904   0.074892

