%chk=/home/boittier/MDCM/nms_sampling/methanol_geom.xyz.dir/methanol_1676.chk
%nproc=8
%mem=16000MB
#p B2PLYPD3/Def2QZVP 

methanol

0 1
C  -5.187214  -1.263857   0.913974
O  -3.766657  -1.116493   0.848396
H  -5.569923  -2.258173   0.522813
H  -5.668132  -0.450230   0.361537
H  -5.346864  -1.146554   2.037382
H  -3.479090  -1.200125   0.090296
