%chk=/home/boittier/MDCM/nms_sampling/methanol_geom.xyz.dir/methanol_611.chk
%nproc=8
%mem=16000MB
#p B2PLYPD3/Def2QZVP 

methanol

0 1
C  -5.179252  -1.255530   0.918572
O  -3.768258  -1.121893   0.868068
H  -5.555807  -2.201559   0.559864
H  -5.648407  -0.532890   0.351024
H  -5.434222  -1.144911   1.921506
H  -3.491469  -1.190929  -0.196370
