%chk=/home/boittier/MDCM/nms_sampling/methanol_geom.xyz.dir/methanol_511.chk
%nproc=8
%mem=16000MB
#p B2PLYPD3/Def2QZVP 

methanol

0 1
C  -5.183606  -1.248013   0.909631
O  -3.765265  -1.123942   0.868377
H  -5.475937  -2.214435   0.578436
H  -5.670933  -0.521037   0.346111
H  -5.488857  -1.177079   1.948550
H  -3.490744  -1.213803  -0.136886
