%chk=/home/boittier/MDCM/nms_sampling/methanol_geom.xyz.dir/methanol_2673.chk
%nproc=8
%mem=16000MB
#p B2PLYPD3/Def2QZVP 

methanol

0 1
C  -5.173882  -1.254787   0.913158
O  -3.771390  -1.128644   0.832447
H  -5.656681  -2.257848   0.512411
H  -5.684413  -0.365451   0.355369
H  -5.480237  -1.197656   2.130940
H  -3.313441  -1.158300   0.283569

