%chk=/home/boittier/MDCM/nms_sampling/methanol_geom.xyz.dir/methanol_2427.chk
%nproc=8
%mem=16000MB
#p B2PLYPD3/Def2QZVP 

methanol

0 1
C  -5.191584  -1.257470   0.897708
O  -3.761418  -1.118532   0.852183
H  -5.382305  -2.231045   0.581077
H  -5.674035  -0.479562   0.284326
H  -5.473916  -1.137034   2.115441
H  -3.565158  -1.253268   0.156280
