%chk=/home/boittier/MDCM/nms_sampling/methanol_geom.xyz.dir/methanol_965.chk
%nproc=8
%mem=16000MB
#p B2PLYPD3/Def2QZVP 

methanol

0 1
C  -5.176267  -1.253753   0.918774
O  -3.767899  -1.123493   0.857084
H  -5.526208  -2.248767   0.516719
H  -5.720665  -0.454059   0.343662
H  -5.467912  -1.173630   1.952289
H  -3.453123  -1.191612   0.001364
