%chk=/home/boittier/MDCM/nms_sampling/methanol_geom.xyz.dir/methanol_1663.chk
%nproc=8
%mem=16000MB
#p B2PLYPD3/Def2QZVP 

methanol

0 1
C  -5.185886  -1.246395   0.902829
O  -3.763571  -1.128645   0.846885
H  -5.405933  -2.276243   0.556112
H  -5.675164  -0.443255   0.306770
H  -5.538739  -1.164531   2.093379
H  -3.503619  -1.190351   0.209822
