%chk=/home/boittier/MDCM/nms_sampling/methanol_geom.xyz.dir/methanol_3031.chk
%nproc=8
%mem=16000MB
#p B2PLYPD3/Def2QZVP 

methanol

0 1
C  -5.190579  -1.244317   0.931355
O  -3.766248  -1.132412   0.885287
H  -5.539311  -2.125122   0.602523
H  -5.518629  -0.615999   0.316163
H  -5.532386  -1.125883   1.798025
H  -3.437677  -1.171801  -0.513382
