%chk=/home/boittier/MDCM/nms_sampling/methanol_geom.xyz.dir/methanol_39.chk
%nproc=8
%mem=16000MB
#p B2PLYPD3/Def2QZVP 

methanol

0 1
C  -5.178443  -1.256826   0.919901
O  -3.771608  -1.123216   0.852849
H  -5.496139  -2.252329   0.545207
H  -5.638695  -0.419875   0.329730
H  -5.442202  -1.170975   1.961034
H  -3.504843  -1.192472   0.035399

