%chk=/home/boittier/MDCM/nms_sampling/methanol_geom.xyz.dir/methanol_2860.chk
%nproc=8
%mem=16000MB
#p B2PLYPD3/Def2QZVP 

methanol

0 1
C  -5.174388  -1.252763   0.897090
O  -3.780878  -1.125261   0.829367
H  -5.418959  -2.360313   0.458185
H  -5.692174  -0.401049   0.391881
H  -5.406425  -1.105653   2.202300
H  -3.471328  -1.177923   0.468116

