%chk=/home/boittier/MDCM/nms_sampling/methanol_geom.xyz.dir/methanol_2058.chk
%nproc=8
%mem=16000MB
#p B2PLYPD3/Def2QZVP 

methanol

0 1
C  -5.193310  -1.264039   0.920155
O  -3.753610  -1.119643   0.839746
H  -5.560329  -2.250383   0.557656
H  -5.696062  -0.379808   0.253570
H  -5.457210  -1.185000   2.054152
H  -3.478479  -1.197725   0.214457
