%chk=/home/boittier/MDCM/nms_sampling/methanol_geom.xyz.dir/methanol_736.chk
%nproc=8
%mem=16000MB
#p B2PLYPD3/Def2QZVP 

methanol

0 1
C  -5.179207  -1.255425   0.908120
O  -3.767641  -1.123921   0.858442
H  -5.518927  -2.235994   0.540379
H  -5.728135  -0.488157   0.350860
H  -5.451583  -1.138146   2.013115
H  -3.440671  -1.179047   0.011084
