%chk=/home/boittier/MDCM/nms_sampling/methanol_geom.xyz.dir/methanol_748.chk
%nproc=8
%mem=16000MB
#p B2PLYPD3/Def2QZVP 

methanol

0 1
C  -5.169040  -1.251146   0.906751
O  -3.773311  -1.123295   0.873626
H  -5.512168  -2.196249   0.558229
H  -5.690955  -0.534851   0.406306
H  -5.482741  -1.159153   1.931598
H  -3.482393  -1.209648  -0.211157
