%chk=/home/boittier/MDCM/nms_sampling/methanol_geom.xyz.dir/methanol_1452.chk
%nproc=8
%mem=16000MB
#p B2PLYPD3/Def2QZVP 

methanol

0 1
C  -5.184849  -1.253462   0.904770
O  -3.768444  -1.120395   0.855754
H  -5.415065  -2.232492   0.551270
H  -5.681490  -0.452152   0.330638
H  -5.448176  -1.193806   2.035989
H  -3.515686  -1.238502   0.080790

