%chk=/home/boittier/MDCM/nms_sampling/methanol_geom.xyz.dir/methanol_3069.chk
%nproc=8
%mem=16000MB
#p B2PLYPD3/Def2QZVP 

methanol

0 1
C  -5.180176  -1.244369   0.938373
O  -3.769372  -1.113066   0.875759
H  -5.510085  -2.243286   0.479887
H  -5.584498  -0.578811   0.382598
H  -5.409543  -1.210207   1.769842
H  -3.607131  -1.296374  -0.353050

