%chk=/home/boittier/MDCM/nms_sampling/methanol_geom.xyz.dir/methanol_890.chk
%nproc=8
%mem=16000MB
#p B2PLYPD3/Def2QZVP 

methanol

0 1
C  -5.179014  -1.256205   0.911932
O  -3.768000  -1.123065   0.872741
H  -5.525358  -2.211185   0.576098
H  -5.717180  -0.499011   0.378750
H  -5.455930  -1.142563   1.889322
H  -3.437247  -1.193129  -0.203765
