%chk=/home/boittier/MDCM/nms_sampling/methanol_geom.xyz.dir/methanol_1258.chk
%nproc=8
%mem=16000MB
#p B2PLYPD3/Def2QZVP 

methanol

0 1
C  -5.164116  -1.247569   0.925474
O  -3.774963  -1.128328   0.869666
H  -5.543529  -2.219476   0.513933
H  -5.668042  -0.505728   0.381740
H  -5.510570  -1.171682   1.854038
H  -3.473781  -1.167922  -0.218924
