%chk=/home/boittier/MDCM/nms_sampling/methanol_geom.xyz.dir/methanol_1363.chk
%nproc=8
%mem=16000MB
#p B2PLYPD3/Def2QZVP 

methanol

0 1
C  -5.170098  -1.269043   0.909996
O  -3.768037  -1.120403   0.876177
H  -5.522066  -2.156106   0.586802
H  -5.792665  -0.473660   0.343680
H  -5.444006  -1.139813   1.888002
H  -3.473842  -1.173424  -0.213167

