%chk=/home/boittier/MDCM/nms_sampling/methanol_geom.xyz.dir/methanol_1478.chk
%nproc=8
%mem=16000MB
#p B2PLYPD3/Def2QZVP 

methanol

0 1
C  -5.186888  -1.260329   0.905298
O  -3.766553  -1.115128   0.873844
H  -5.535645  -2.200759   0.591976
H  -5.695837  -0.542546   0.389432
H  -5.350422  -1.150781   1.936729
H  -3.490428  -1.222016  -0.219305

