%chk=/home/boittier/MDCM/nms_sampling/methanol_geom.xyz.dir/methanol_1783.chk
%nproc=8
%mem=16000MB
#p B2PLYPD3/Def2QZVP 

methanol

0 1
C  -5.177623  -1.255663   0.916937
O  -3.769289  -1.128723   0.871211
H  -5.602180  -2.138213   0.571600
H  -5.632205  -0.492268   0.387447
H  -5.479684  -1.188544   1.910237
H  -3.409360  -1.148476  -0.264210

