%chk=/home/boittier/MDCM/nms_sampling/methanol_geom.xyz.dir/methanol_2815.chk
%nproc=8
%mem=16000MB
#p B2PLYPD3/Def2QZVP 

methanol

0 1
C  -5.212692  -1.263806   0.930858
O  -3.746967  -1.123987   0.827869
H  -5.535493  -2.322246   0.512244
H  -5.626593  -0.264717   0.297184
H  -5.496901  -1.163039   2.005939
H  -3.411409  -1.198735   0.338680

