%chk=/home/boittier/MDCM/nms_sampling/methanol_geom.xyz.dir/methanol_2126.chk
%nproc=8
%mem=16000MB
#p B2PLYPD3/Def2QZVP 

methanol

0 1
C  -5.197090  -1.263316   0.924369
O  -3.755607  -1.117265   0.868331
H  -5.554558  -2.220876   0.563932
H  -5.647460  -0.467532   0.368936
H  -5.431138  -1.140200   1.846705
H  -3.489703  -1.224837  -0.211658
