%chk=/home/boittier/MDCM/nms_sampling/methanol_geom.xyz.dir/methanol_885.chk
%nproc=8
%mem=16000MB
#p B2PLYPD3/Def2QZVP 

methanol

0 1
C  -5.187595  -1.257751   0.906566
O  -3.764265  -1.121466   0.864688
H  -5.499245  -2.197896   0.575119
H  -5.691294  -0.488069   0.352501
H  -5.430044  -1.168683   1.984979
H  -3.473226  -1.197582  -0.080291

