%chk=/home/boittier/MDCM/nms_sampling/methanol_geom.xyz.dir/methanol_2048.chk
%nproc=8
%mem=16000MB
#p B2PLYPD3/Def2QZVP 

methanol

0 1
C  -5.186079  -1.262891   0.909403
O  -3.756408  -1.120096   0.874245
H  -5.544380  -2.138433   0.599523
H  -5.686675  -0.472363   0.376248
H  -5.479457  -1.209095   1.910220
H  -3.519127  -1.199636  -0.241311

