%chk=/home/boittier/MDCM/nms_sampling/methanol_geom.xyz.dir/methanol_3499.chk
%nproc=8
%mem=16000MB
#p B2PLYPD3/Def2QZVP 

methanol

0 1
C  -5.201822  -1.261967   0.911716
O  -3.750705  -1.130179   0.844747
H  -5.416790  -2.256348   0.493671
H  -5.833093  -0.317091   0.296696
H  -5.522732  -1.167810   2.022021
H  -3.360390  -1.135624   0.285855

