%chk=/home/boittier/MDCM/nms_sampling/methanol_geom.xyz.dir/methanol_3233.chk
%nproc=8
%mem=16000MB
#p B2PLYPD3/Def2QZVP 

methanol

0 1
C  -5.176295  -1.263180   0.908704
O  -3.773855  -1.120544   0.886502
H  -5.498394  -2.198352   0.630580
H  -5.729862  -0.506471   0.402805
H  -5.350465  -1.139651   1.794823
H  -3.494858  -1.156754  -0.371261

