%chk=/home/boittier/MDCM/nms_sampling/methanol_geom.xyz.dir/methanol_92.chk
%nproc=8
%mem=16000MB
#p B2PLYPD3/Def2QZVP 

methanol

0 1
C  -5.183917  -1.249577   0.909422
O  -3.766623  -1.124991   0.854648
H  -5.453369  -2.252007   0.554882
H  -5.664081  -0.475374   0.320329
H  -5.495437  -1.154983   2.025002
H  -3.487912  -1.209836   0.061968

