%chk=/home/boittier/MDCM/nms_sampling/methanol_geom.xyz.dir/methanol_2137.chk
%nproc=8
%mem=16000MB
#p B2PLYPD3/Def2QZVP 

methanol

0 1
C  -5.164138  -1.250855   0.927823
O  -3.776701  -1.127347   0.877266
H  -5.541852  -2.151789   0.555044
H  -5.642774  -0.495160   0.356636
H  -5.500890  -1.217017   1.807566
H  -3.477986  -1.179625  -0.340278

