%chk=/home/boittier/MDCM/nms_sampling/methanol_geom.xyz.dir/methanol_2695.chk
%nproc=8
%mem=16000MB
#p B2PLYPD3/Def2QZVP 

methanol

0 1
C  -5.175642  -1.261190   0.898588
O  -3.778898  -1.115010   0.901118
H  -5.516855  -2.105827   0.615013
H  -5.700972  -0.698595   0.422625
H  -5.316398  -1.077696   1.866428
H  -3.478367  -1.222063  -0.575638

