%chk=/home/boittier/MDCM/nms_sampling/methanol_geom.xyz.dir/methanol_361.chk
%nproc=8
%mem=16000MB
#p B2PLYPD3/Def2QZVP 

methanol

0 1
C  -5.173976  -1.254872   0.916383
O  -3.769941  -1.123596   0.850458
H  -5.546441  -2.257864   0.517459
H  -5.705114  -0.455764   0.333538
H  -5.471809  -1.145423   2.015201
H  -3.439968  -1.194410   0.082985
