%chk=/home/boittier/MDCM/nms_sampling/methanol_geom.xyz.dir/methanol_2885.chk
%nproc=8
%mem=16000MB
#p B2PLYPD3/Def2QZVP 

methanol

0 1
C  -5.172704  -1.272342   0.933844
O  -3.770001  -1.125398   0.885786
H  -5.594488  -2.078269   0.591600
H  -5.725267  -0.460457   0.306452
H  -5.487358  -1.128754   1.729673
H  -3.358604  -1.163848  -0.458643
