%chk=/home/boittier/MDCM/nms_sampling/methanol_geom.xyz.dir/methanol_1089.chk
%nproc=8
%mem=16000MB
#p B2PLYPD3/Def2QZVP 

methanol

0 1
C  -5.171465  -1.249721   0.910606
O  -3.772290  -1.124521   0.857100
H  -5.493962  -2.260959   0.532315
H  -5.718449  -0.452587   0.365567
H  -5.479997  -1.184564   1.981082
H  -3.462193  -1.199763   0.031539

