%chk=/home/boittier/MDCM/nms_sampling/methanol_geom.xyz.dir/methanol_1666.chk
%nproc=8
%mem=16000MB
#p B2PLYPD3/Def2QZVP 

methanol

0 1
C  -5.170316  -1.245156   0.903133
O  -3.773147  -1.129334   0.845705
H  -5.447783  -2.281864   0.546001
H  -5.718475  -0.448113   0.306931
H  -5.512270  -1.177439   2.102161
H  -3.474095  -1.169861   0.226246
