%chk=/home/boittier/MDCM/nms_sampling/methanol_geom.xyz.dir/methanol_1538.chk
%nproc=8
%mem=16000MB
#p B2PLYPD3/Def2QZVP 

methanol

0 1
C  -5.175425  -1.252313   0.908519
O  -3.760561  -1.118554   0.866366
H  -5.512569  -2.214811   0.519393
H  -5.723405  -0.513744   0.394142
H  -5.487816  -1.210085   1.967632
H  -3.571446  -1.222898  -0.099579
