%chk=/home/boittier/MDCM/nms_sampling/methanol_geom.xyz.dir/methanol_3126.chk
%nproc=8
%mem=16000MB
#p B2PLYPD3/Def2QZVP 

methanol

0 1
C  -5.157548  -1.239718   0.910178
O  -3.777841  -1.128415   0.841086
H  -5.436882  -2.315311   0.400337
H  -5.735035  -0.457438   0.383760
H  -5.571987  -1.167383   2.100673
H  -3.486933  -1.212654   0.287884
