%chk=/home/boittier/MDCM/nms_sampling/methanol_geom.xyz.dir/methanol_66.chk
%nproc=8
%mem=16000MB
#p B2PLYPD3/Def2QZVP 

methanol

0 1
C  -5.174519  -1.248026   0.910316
O  -3.771309  -1.123498   0.866865
H  -5.502244  -2.215864   0.540740
H  -5.676510  -0.532118   0.374438
H  -5.471324  -1.174022   1.963349
H  -3.487237  -1.209631  -0.126406
