%chk=/home/boittier/MDCM/nms_sampling/methanol_geom.xyz.dir/methanol_3412.chk
%nproc=8
%mem=16000MB
#p B2PLYPD3/Def2QZVP 

methanol

0 1
C  -5.185343  -1.261580   0.890910
O  -3.763127  -1.115876   0.894101
H  -5.397145  -2.051220   0.655933
H  -5.608237  -0.607290   0.384346
H  -5.498699  -1.154258   1.942275
H  -3.633875  -1.283301  -0.449804
