%chk=/home/boittier/MDCM/nms_sampling/methanol_geom.xyz.dir/methanol_866.chk
%nproc=8
%mem=16000MB
#p B2PLYPD3/Def2QZVP 

methanol

0 1
C  -5.186399  -1.257280   0.909104
O  -3.763498  -1.122867   0.872488
H  -5.499043  -2.167969   0.593635
H  -5.697391  -0.513555   0.336184
H  -5.448628  -1.168389   1.936508
H  -3.473468  -1.187499  -0.191736
