%chk=/home/boittier/MDCM/nms_sampling/methanol_geom.xyz.dir/methanol_1767.chk
%nproc=8
%mem=16000MB
#p B2PLYPD3/Def2QZVP 

methanol

0 1
C  -5.168904  -1.262243   0.915039
O  -3.779301  -1.119941   0.842518
H  -5.481250  -2.247951   0.530343
H  -5.596179  -0.398782   0.324965
H  -5.444456  -1.145365   2.062533
H  -3.549274  -1.231162   0.177410
