%chk=/home/boittier/MDCM/nms_sampling/methanol_geom.xyz.dir/methanol_2059.chk
%nproc=8
%mem=16000MB
#p B2PLYPD3/Def2QZVP 

methanol

0 1
C  -5.177933  -1.256986   0.922509
O  -3.761048  -1.118952   0.849087
H  -5.524190  -2.274573   0.576204
H  -5.673660  -0.379584   0.293734
H  -5.514897  -1.207204   1.948348
H  -3.541708  -1.243480   0.085631
