%chk=/home/boittier/MDCM/nms_sampling/methanol_geom.xyz.dir/methanol_1032.chk
%nproc=8
%mem=16000MB
#p B2PLYPD3/Def2QZVP 

methanol

0 1
C  -5.189349  -1.252192   0.922630
O  -3.764317  -1.124914   0.849419
H  -5.485899  -2.273875   0.538102
H  -5.665635  -0.422514   0.291366
H  -5.468559  -1.170456   1.970979
H  -3.452391  -1.196728   0.093788
