%chk=/home/boittier/MDCM/nms_sampling/methanol_geom.xyz.dir/methanol_153.chk
%nproc=8
%mem=16000MB
#p B2PLYPD3/Def2QZVP 

methanol

0 1
C  -5.181053  -1.255735   0.907840
O  -3.762762  -1.123771   0.856831
H  -5.514977  -2.230770   0.565526
H  -5.731191  -0.447741   0.334234
H  -5.478554  -1.182259   2.009155
H  -3.466436  -1.182267   0.037345

