%chk=/home/boittier/MDCM/nms_sampling/methanol_geom.xyz.dir/methanol_2235.chk
%nproc=8
%mem=16000MB
#p B2PLYPD3/Def2QZVP 

methanol

0 1
C  -5.179355  -1.257260   0.920450
O  -3.767535  -1.119609   0.874018
H  -5.471230  -2.198751   0.537124
H  -5.637031  -0.516124   0.375366
H  -5.453785  -1.150708   1.856716
H  -3.577286  -1.219930  -0.251001
