%chk=/home/boittier/MDCM/nms_sampling/methanol_geom.xyz.dir/methanol_1359.chk
%nproc=8
%mem=16000MB
#p B2PLYPD3/Def2QZVP 

methanol

0 1
C  -5.180572  -1.249704   0.917344
O  -3.765788  -1.119989   0.876999
H  -5.542371  -2.185606   0.558093
H  -5.593694  -0.583593   0.400421
H  -5.447683  -1.178122   1.883048
H  -3.572053  -1.218022  -0.336535

