%chk=/home/boittier/MDCM/nms_sampling/methanol_geom.xyz.dir/methanol_3283.chk
%nproc=8
%mem=16000MB
#p B2PLYPD3/Def2QZVP 

methanol

0 1
C  -5.199956  -1.236131   0.902975
O  -3.761641  -1.129295   0.896004
H  -5.449132  -2.236829   0.609326
H  -5.714054  -0.630949   0.450150
H  -5.424230  -1.154540   1.785378
H  -3.413725  -1.152023  -0.477262
