%chk=/home/boittier/MDCM/nms_sampling/methanol_geom.xyz.dir/methanol_2199.chk
%nproc=8
%mem=16000MB
#p B2PLYPD3/Def2QZVP 

methanol

0 1
C  -5.184513  -1.245949   0.908293
O  -3.766282  -1.123385   0.846034
H  -5.400067  -2.357792   0.524669
H  -5.728118  -0.443896   0.322375
H  -5.488598  -1.127164   2.035013
H  -3.488490  -1.227501   0.236351

