%chk=/home/boittier/MDCM/nms_sampling/methanol_geom.xyz.dir/methanol_833.chk
%nproc=8
%mem=16000MB
#p B2PLYPD3/Def2QZVP 

methanol

0 1
C  -5.176747  -1.252695   0.918837
O  -3.771182  -1.120803   0.864047
H  -5.520011  -2.211030   0.535215
H  -5.631277  -0.516545   0.353183
H  -5.442529  -1.171984   1.942419
H  -3.519211  -1.219290  -0.132645
