%chk=/home/boittier/MDCM/nms_sampling/methanol_geom.xyz.dir/methanol_967.chk
%nproc=8
%mem=16000MB
#p B2PLYPD3/Def2QZVP 

methanol

0 1
C  -5.183640  -1.246131   0.909929
O  -3.765800  -1.124388   0.873519
H  -5.484813  -2.204202   0.560586
H  -5.667057  -0.564553   0.370921
H  -5.470361  -1.171275   1.931308
H  -3.497031  -1.199433  -0.214945
