%chk=/home/boittier/MDCM/nms_sampling/methanol_geom.xyz.dir/methanol_2836.chk
%nproc=8
%mem=16000MB
#p B2PLYPD3/Def2QZVP 

methanol

0 1
C  -5.170530  -1.269242   0.897036
O  -3.776886  -1.120603   0.878895
H  -5.492818  -2.051426   0.600436
H  -5.745722  -0.498589   0.348541
H  -5.429866  -1.176550   1.991527
H  -3.416609  -1.209804  -0.232151
