%chk=/home/boittier/MDCM/nms_sampling/methanol_geom.xyz.dir/methanol_1371.chk
%nproc=8
%mem=16000MB
#p B2PLYPD3/Def2QZVP 

methanol

0 1
C  -5.195681  -1.255072   0.905155
O  -3.761340  -1.121679   0.881422
H  -5.547490  -2.175369   0.593714
H  -5.669064  -0.599880   0.409046
H  -5.416433  -1.103570   1.914773
H  -3.420510  -1.198052  -0.341817

