%chk=/home/boittier/MDCM/nms_sampling/methanol_geom.xyz.dir/methanol_166.chk
%nproc=8
%mem=16000MB
#p B2PLYPD3/Def2QZVP 

methanol

0 1
C  -5.188748  -1.260257   0.907852
O  -3.761098  -1.119420   0.853505
H  -5.508002  -2.253533   0.537642
H  -5.716523  -0.448455   0.356828
H  -5.408675  -1.162379   2.025756
H  -3.498378  -1.190078   0.080363
