%chk=/home/boittier/MDCM/nms_sampling/methanol_geom.xyz.dir/methanol_3095.chk
%nproc=8
%mem=16000MB
#p B2PLYPD3/Def2QZVP 

methanol

0 1
C  -5.178507  -1.286138   0.913433
O  -3.770692  -1.119466   0.850233
H  -5.441487  -2.214528   0.577089
H  -5.816831  -0.311583   0.239894
H  -5.372392  -1.086936   1.984380
H  -3.456737  -1.147697   0.187754

