%chk=/home/boittier/MDCM/nms_sampling/methanol_geom.xyz.dir/methanol_3450.chk
%nproc=8
%mem=16000MB
#p B2PLYPD3/Def2QZVP 

methanol

0 1
C  -5.184207  -1.267341   0.907835
O  -3.772243  -1.114053   0.850961
H  -5.376377  -2.278441   0.507332
H  -5.822776  -0.373087   0.310311
H  -5.323983  -1.172548   2.004292
H  -3.485389  -1.228166   0.220536
