%chk=/home/boittier/MDCM/nms_sampling/methanol_geom.xyz.dir/methanol_1405.chk
%nproc=8
%mem=16000MB
#p B2PLYPD3/Def2QZVP 

methanol

0 1
C  -5.169299  -1.256223   0.911044
O  -3.771026  -1.123322   0.879462
H  -5.552829  -2.152494   0.552716
H  -5.716314  -0.563678   0.391614
H  -5.475783  -1.137267   1.901523
H  -3.455302  -1.189053  -0.308487

