%chk=/home/boittier/MDCM/nms_sampling/methanol_geom.xyz.dir/methanol_632.chk
%nproc=8
%mem=16000MB
#p B2PLYPD3/Def2QZVP 

methanol

0 1
C  -5.187820  -1.257366   0.913486
O  -3.761149  -1.120563   0.860631
H  -5.501361  -2.243629   0.534390
H  -5.715336  -0.475424   0.352664
H  -5.426503  -1.161232   1.959500
H  -3.498967  -1.189919  -0.028473

