%chk=/home/boittier/MDCM/nms_sampling/methanol_geom.xyz.dir/methanol_2209.chk
%nproc=8
%mem=16000MB
#p B2PLYPD3/Def2QZVP 

methanol

0 1
C  -5.174597  -1.262994   0.908515
O  -3.773969  -1.120380   0.873383
H  -5.441277  -2.191537   0.587183
H  -5.695737  -0.452317   0.375258
H  -5.441188  -1.148270   1.886338
H  -3.510906  -1.216762  -0.177946
