%chk=/home/boittier/MDCM/nms_sampling/methanol_geom.xyz.dir/methanol_477.chk
%nproc=8
%mem=16000MB
#p B2PLYPD3/Def2QZVP 

methanol

0 1
C  -5.178169  -1.252159   0.909797
O  -3.772762  -1.126371   0.867295
H  -5.483836  -2.191480   0.569779
H  -5.634535  -0.496937   0.369725
H  -5.471694  -1.165202   1.954480
H  -3.477150  -1.187109  -0.141570

