%chk=/home/boittier/MDCM/nms_sampling/methanol_geom.xyz.dir/methanol_3036.chk
%nproc=8
%mem=16000MB
#p B2PLYPD3/Def2QZVP 

methanol

0 1
C  -5.181362  -1.245418   0.899987
O  -3.766913  -1.121398   0.895073
H  -5.438371  -2.128775   0.615816
H  -5.679637  -0.679982   0.369476
H  -5.427000  -1.183446   1.893541
H  -3.584946  -1.199603  -0.469171
