%chk=/home/boittier/MDCM/nms_sampling/methanol_geom.xyz.dir/methanol_1541.chk
%nproc=8
%mem=16000MB
#p B2PLYPD3/Def2QZVP 

methanol

0 1
C  -5.196931  -1.252158   0.918970
O  -3.762663  -1.125560   0.841257
H  -5.529657  -2.280993   0.563688
H  -5.636847  -0.414899   0.276008
H  -5.443997  -1.168012   2.046907
H  -3.400735  -1.189423   0.183394

