%chk=/home/boittier/MDCM/nms_sampling/methanol_geom.xyz.dir/methanol_2882.chk
%nproc=8
%mem=16000MB
#p B2PLYPD3/Def2QZVP 

methanol

0 1
C  -5.180985  -1.249703   0.901607
O  -3.770419  -1.112831   0.900377
H  -5.440665  -2.108988   0.574829
H  -5.623128  -0.703458   0.441190
H  -5.379040  -1.183572   1.860909
H  -3.641115  -1.274410  -0.572392
