%chk=/home/boittier/MDCM/nms_sampling/methanol_geom.xyz.dir/methanol_2191.chk
%nproc=8
%mem=16000MB
#p B2PLYPD3/Def2QZVP 

methanol

0 1
C  -5.178358  -1.249591   0.902172
O  -3.762406  -1.122263   0.873035
H  -5.489463  -2.168861   0.607410
H  -5.686719  -0.520069   0.360838
H  -5.540121  -1.209010   1.964524
H  -3.513367  -1.239962  -0.185279

