%chk=/home/boittier/MDCM/nms_sampling/methanol_geom.xyz.dir/methanol_3113.chk
%nproc=8
%mem=16000MB
#p B2PLYPD3/Def2QZVP 

methanol

0 1
C  -5.193829  -1.277065   0.911507
O  -3.744895  -1.111157   0.895656
H  -5.546630  -2.084285   0.538353
H  -5.857397  -0.512797   0.428141
H  -5.453341  -1.158746   1.773542
H  -3.468639  -1.239606  -0.470453
