%chk=/home/boittier/MDCM/nms_sampling/methanol_geom.xyz.dir/methanol_93.chk
%nproc=8
%mem=16000MB
#p B2PLYPD3/Def2QZVP 

methanol

0 1
C  -5.190540  -1.251619   0.916291
O  -3.762036  -1.122246   0.869544
H  -5.540767  -2.210671   0.567456
H  -5.655233  -0.537699   0.357356
H  -5.445043  -1.156581   1.916947
H  -3.458043  -1.204691  -0.202516

