%chk=/home/boittier/MDCM/nms_sampling/methanol_geom.xyz.dir/methanol_120.chk
%nproc=8
%mem=16000MB
#p B2PLYPD3/Def2QZVP 

methanol

0 1
C  -5.178552  -1.253396   0.914539
O  -3.762972  -1.124671   0.868023
H  -5.545207  -2.193915   0.577599
H  -5.652832  -0.499279   0.363102
H  -5.522642  -1.167760   1.925392
H  -3.496755  -1.195719  -0.180556
