%chk=/home/boittier/MDCM/nms_sampling/methanol_geom.xyz.dir/methanol_318.chk
%nproc=8
%mem=16000MB
#p B2PLYPD3/Def2QZVP 

methanol

0 1
C  -5.183784  -1.256687   0.910991
O  -3.767928  -1.124915   0.869704
H  -5.472662  -2.195234   0.554522
H  -5.695027  -0.488969   0.365624
H  -5.446554  -1.152384   1.925153
H  -3.464399  -1.174669  -0.146155
