%chk=/home/boittier/MDCM/nms_sampling/methanol_geom.xyz.dir/methanol_1542.chk
%nproc=8
%mem=16000MB
#p B2PLYPD3/Def2QZVP 

methanol

0 1
C  -5.188604  -1.243157   0.919141
O  -3.762664  -1.121771   0.840691
H  -5.472878  -2.390290   0.517350
H  -5.683234  -0.423379   0.326784
H  -5.464815  -1.168650   1.999844
H  -3.494985  -1.230282   0.236617

