%chk=/home/boittier/MDCM/nms_sampling/methanol_geom.xyz.dir/methanol_187.chk
%nproc=8
%mem=16000MB
#p B2PLYPD3/Def2QZVP 

methanol

0 1
C  -5.176393  -1.258201   0.908319
O  -3.763697  -1.122219   0.855860
H  -5.477374  -2.227729   0.546666
H  -5.705996  -0.430732   0.346128
H  -5.514705  -1.172646   2.008484
H  -3.531383  -1.208503   0.055360
