%chk=/home/boittier/MDCM/nms_sampling/methanol_geom.xyz.dir/methanol_616.chk
%nproc=8
%mem=16000MB
#p B2PLYPD3/Def2QZVP 

methanol

0 1
C  -5.179775  -1.252273   0.915855
O  -3.764409  -1.125912   0.848906
H  -5.519085  -2.245987   0.533065
H  -5.638313  -0.426725   0.340791
H  -5.524260  -1.183455   2.019513
H  -3.497284  -1.193906   0.088501

