%chk=/home/boittier/MDCM/nms_sampling/methanol_geom.xyz.dir/methanol_3265.chk
%nproc=8
%mem=16000MB
#p B2PLYPD3/Def2QZVP 

methanol

0 1
C  -5.187931  -1.249388   0.923963
O  -3.756914  -1.114423   0.833298
H  -5.514070  -2.449772   0.521455
H  -5.677754  -0.403263   0.318659
H  -5.417241  -1.160154   1.997426
H  -3.608553  -1.240336   0.309343

