%chk=/home/boittier/MDCM/nms_sampling/methanol_geom.xyz.dir/methanol_953.chk
%nproc=8
%mem=16000MB
#p B2PLYPD3/Def2QZVP 

methanol

0 1
C  -5.187562  -1.259505   0.918908
O  -3.762168  -1.119071   0.850204
H  -5.499094  -2.270721   0.552178
H  -5.678414  -0.414313   0.306115
H  -5.446372  -1.161655   1.977145
H  -3.504302  -1.223146   0.090528
