%chk=/home/boittier/MDCM/nms_sampling/methanol_geom.xyz.dir/methanol_744.chk
%nproc=8
%mem=16000MB
#p B2PLYPD3/Def2QZVP 

methanol

0 1
C  -5.179537  -1.254141   0.910503
O  -3.769616  -1.125041   0.853826
H  -5.497615  -2.236955   0.533582
H  -5.703693  -0.447758   0.340224
H  -5.459372  -1.170107   2.020334
H  -3.440846  -1.184359   0.069166
