%chk=/home/boittier/MDCM/nms_sampling/methanol_geom.xyz.dir/methanol_1506.chk
%nproc=8
%mem=16000MB
#p B2PLYPD3/Def2QZVP 

methanol

0 1
C  -5.202150  -1.249200   0.917396
O  -3.756769  -1.126172   0.876543
H  -5.526608  -2.222191   0.584436
H  -5.665422  -0.550367   0.368910
H  -5.427483  -1.146112   1.852149
H  -3.427858  -1.157457  -0.291608
