%chk=/home/boittier/MDCM/nms_sampling/methanol_geom.xyz.dir/methanol_2842.chk
%nproc=8
%mem=16000MB
#p B2PLYPD3/Def2QZVP 

methanol

0 1
C  -5.205290  -1.253618   0.887260
O  -3.753087  -1.111696   0.892144
H  -5.490115  -2.174370   0.670289
H  -5.693236  -0.662216   0.422260
H  -5.367897  -1.139037   1.936496
H  -3.528290  -1.269261  -0.418041

