%chk=/home/boittier/MDCM/nms_sampling/methanol_geom.xyz.dir/methanol_1101.chk
%nproc=8
%mem=16000MB
#p B2PLYPD3/Def2QZVP 

methanol

0 1
C  -5.187840  -1.253820   0.913098
O  -3.763382  -1.123746   0.869157
H  -5.457583  -2.206086   0.553868
H  -5.691465  -0.484505   0.354640
H  -5.483980  -1.164046   1.912933
H  -3.471837  -1.208663  -0.137850

