%chk=/home/boittier/MDCM/nms_sampling/methanol_geom.xyz.dir/methanol_51.chk
%nproc=8
%mem=16000MB
#p B2PLYPD3/Def2QZVP 

methanol

0 1
C  -5.178144  -1.256459   0.914640
O  -3.767404  -1.124291   0.855708
H  -5.561255  -2.235001   0.524356
H  -5.689643  -0.462574   0.369051
H  -5.460085  -1.151583   1.991324
H  -3.442401  -1.175384   0.000155
