%chk=/home/boittier/MDCM/nms_sampling/methanol_geom.xyz.dir/methanol_1041.chk
%nproc=8
%mem=16000MB
#p B2PLYPD3/Def2QZVP 

methanol

0 1
C  -5.178404  -1.251217   0.917368
O  -3.771808  -1.123864   0.851405
H  -5.492499  -2.303053   0.524068
H  -5.676949  -0.441058   0.351558
H  -5.432746  -1.156990   1.970255
H  -3.481685  -1.186897   0.079331

