%chk=/home/boittier/MDCM/nms_sampling/methanol_geom.xyz.dir/methanol_262.chk
%nproc=8
%mem=16000MB
#p B2PLYPD3/Def2QZVP 

methanol

0 1
C  -5.181042  -1.262001   0.920151
O  -3.768856  -1.120208   0.869960
H  -5.544338  -2.192955   0.591713
H  -5.654501  -0.482094   0.340351
H  -5.425799  -1.141444   1.875166
H  -3.472713  -1.206457  -0.218120
