%chk=/home/boittier/MDCM/nms_sampling/methanol_geom.xyz.dir/methanol_1103.chk
%nproc=8
%mem=16000MB
#p B2PLYPD3/Def2QZVP 

methanol

0 1
C  -5.185070  -1.256286   0.920976
O  -3.760810  -1.124128   0.863336
H  -5.557803  -2.219872   0.561506
H  -5.688558  -0.455105   0.343534
H  -5.470473  -1.181883   1.901030
H  -3.458280  -1.174126  -0.118349

