%chk=/home/boittier/MDCM/nms_sampling/methanol_geom.xyz.dir/methanol_2593.chk
%nproc=8
%mem=16000MB
#p B2PLYPD3/Def2QZVP 

methanol

0 1
C  -5.176740  -1.241517   0.931310
O  -3.769546  -1.123221   0.887444
H  -5.551983  -2.237576   0.529571
H  -5.551062  -0.581344   0.483960
H  -5.528252  -1.136398   1.697447
H  -3.514194  -1.253614  -0.533906

