%chk=/home/boittier/MDCM/nms_sampling/methanol_geom.xyz.dir/methanol_1874.chk
%nproc=8
%mem=16000MB
#p B2PLYPD3/Def2QZVP 

methanol

0 1
C  -5.171423  -1.269466   0.907978
O  -3.767931  -1.120572   0.858152
H  -5.513981  -2.214885   0.569759
H  -5.778309  -0.390609   0.339000
H  -5.454504  -1.148617   1.976178
H  -3.470880  -1.181859   0.039965

