%chk=/home/boittier/MDCM/nms_sampling/methanol_geom.xyz.dir/methanol_1885.chk
%nproc=8
%mem=16000MB
#p B2PLYPD3/Def2QZVP 

methanol

0 1
C  -5.182232  -1.252820   0.917676
O  -3.763843  -1.116898   0.864035
H  -5.534987  -2.257345   0.538908
H  -5.614697  -0.525752   0.394449
H  -5.460101  -1.139792   1.925011
H  -3.560906  -1.254254  -0.143678

