%chk=/home/boittier/MDCM/nms_sampling/methanol_geom.xyz.dir/methanol_472.chk
%nproc=8
%mem=16000MB
#p B2PLYPD3/Def2QZVP 

methanol

0 1
C  -5.189346  -1.257427   0.909037
O  -3.759938  -1.119445   0.870371
H  -5.525348  -2.210040   0.582615
H  -5.694560  -0.524480   0.367031
H  -5.416027  -1.157894   1.936517
H  -3.508886  -1.194032  -0.174733

