%chk=/home/boittier/MDCM/nms_sampling/methanol_geom.xyz.dir/methanol_2596.chk
%nproc=8
%mem=16000MB
#p B2PLYPD3/Def2QZVP 

methanol

0 1
C  -5.177007  -1.270139   0.921425
O  -3.774699  -1.117685   0.883655
H  -5.620274  -2.120498   0.569902
H  -5.549477  -0.582704   0.434557
H  -5.335394  -1.090204   1.836391
H  -3.548134  -1.170097  -0.491588

