%chk=/home/boittier/MDCM/nms_sampling/methanol_geom.xyz.dir/methanol_1594.chk
%nproc=8
%mem=16000MB
#p B2PLYPD3/Def2QZVP 

methanol

0 1
C  -5.188071  -1.251685   0.916412
O  -3.757332  -1.122316   0.844221
H  -5.586927  -2.280089   0.506133
H  -5.691770  -0.435863   0.355413
H  -5.482539  -1.190908   2.043820
H  -3.438382  -1.204005   0.146377
