%chk=/home/boittier/MDCM/nms_sampling/methanol_geom.xyz.dir/methanol_1799.chk
%nproc=8
%mem=16000MB
#p B2PLYPD3/Def2QZVP 

methanol

0 1
C  -5.163154  -1.256877   0.908761
O  -3.778731  -1.119395   0.851823
H  -5.428587  -2.292214   0.528573
H  -5.735444  -0.428079   0.335647
H  -5.450615  -1.141426   2.008637
H  -3.536762  -1.231242   0.145250
