%chk=/home/boittier/MDCM/nms_sampling/methanol_geom.xyz.dir/methanol_2220.chk
%nproc=8
%mem=16000MB
#p B2PLYPD3/Def2QZVP 

methanol

0 1
C  -5.176318  -1.256727   0.927530
O  -3.763073  -1.119064   0.848975
H  -5.517468  -2.249936   0.547345
H  -5.656160  -0.410635   0.266022
H  -5.510845  -1.201755   1.958528
H  -3.556944  -1.243100   0.071619
