%chk=/home/boittier/MDCM/nms_sampling/methanol_geom.xyz.dir/methanol_1248.chk
%nproc=8
%mem=16000MB
#p B2PLYPD3/Def2QZVP 

methanol

0 1
C  -5.167531  -1.245872   0.905559
O  -3.778278  -1.121628   0.879008
H  -5.468937  -2.240462   0.584698
H  -5.706278  -0.554462   0.408189
H  -5.437479  -1.164077   1.878271
H  -3.499440  -1.223352  -0.257793
