%chk=/home/boittier/MDCM/nms_sampling/methanol_geom.xyz.dir/methanol_1107.chk
%nproc=8
%mem=16000MB
#p B2PLYPD3/Def2QZVP 

methanol

0 1
C  -5.180220  -1.255957   0.915984
O  -3.767986  -1.120163   0.850101
H  -5.526236  -2.263344   0.521168
H  -5.674367  -0.469062   0.330144
H  -5.410462  -1.163231   2.023923
H  -3.512132  -1.195468   0.084133
