%chk=/home/boittier/MDCM/nms_sampling/methanol_geom.xyz.dir/methanol_691.chk
%nproc=8
%mem=16000MB
#p B2PLYPD3/Def2QZVP 

methanol

0 1
C  -5.190799  -1.258973   0.911913
O  -3.760439  -1.118927   0.874452
H  -5.490159  -2.203608   0.551247
H  -5.712775  -0.514318   0.385689
H  -5.430487  -1.143424   1.888714
H  -3.487132  -1.215145  -0.214172

