%chk=/home/boittier/MDCM/nms_sampling/methanol_geom.xyz.dir/methanol_768.chk
%nproc=8
%mem=16000MB
#p B2PLYPD3/Def2QZVP 

methanol

0 1
C  -5.181463  -1.251455   0.915410
O  -3.769563  -1.123735   0.870422
H  -5.519849  -2.184142   0.548309
H  -5.639000  -0.535898   0.369743
H  -5.453088  -1.166689   1.927097
H  -3.470980  -1.201660  -0.210960
