%chk=/home/boittier/MDCM/nms_sampling/methanol_geom.xyz.dir/methanol_3154.chk
%nproc=8
%mem=16000MB
#p B2PLYPD3/Def2QZVP 

methanol

0 1
C  -5.168800  -1.265815   0.913326
O  -3.771332  -1.114197   0.878381
H  -5.553589  -2.092428   0.581223
H  -5.527042  -0.539773   0.417879
H  -5.497710  -1.151277   1.911776
H  -3.621017  -1.289989  -0.381687
