%chk=/home/boittier/MDCM/nms_sampling/methanol_geom.xyz.dir/methanol_3003.chk
%nproc=8
%mem=16000MB
#p B2PLYPD3/Def2QZVP 

methanol

0 1
C  -5.184878  -1.256457   0.922126
O  -3.751974  -1.116669   0.883952
H  -5.737213  -2.097093   0.545727
H  -5.703823  -0.634816   0.391741
H  -5.443341  -1.205934   1.875147
H  -3.439022  -1.206208  -0.481186
