%chk=/home/boittier/MDCM/nms_sampling/methanol_geom.xyz.dir/methanol_1467.chk
%nproc=8
%mem=16000MB
#p B2PLYPD3/Def2QZVP 

methanol

0 1
C  -5.165644  -1.252826   0.926453
O  -3.776431  -1.128626   0.872863
H  -5.536917  -2.166674   0.525484
H  -5.635993  -0.501889   0.369606
H  -5.509241  -1.164351   1.847746
H  -3.469507  -1.167721  -0.276873

