%chk=/home/boittier/MDCM/nms_sampling/methanol_geom.xyz.dir/methanol_708.chk
%nproc=8
%mem=16000MB
#p B2PLYPD3/Def2QZVP 

methanol

0 1
C  -5.181504  -1.250984   0.918610
O  -3.763145  -1.124851   0.858319
H  -5.504691  -2.234911   0.540705
H  -5.679474  -0.443882   0.336721
H  -5.514371  -1.199536   1.943107
H  -3.481382  -1.202702  -0.024125
