%chk=/home/boittier/MDCM/nms_sampling/methanol_geom.xyz.dir/methanol_481.chk
%nproc=8
%mem=16000MB
#p B2PLYPD3/Def2QZVP 

methanol

0 1
C  -5.184622  -1.250787   0.921957
O  -3.764061  -1.123806   0.866174
H  -5.516138  -2.240108   0.531009
H  -5.643844  -0.514338   0.365716
H  -5.472792  -1.146300   1.893454
H  -3.501895  -1.194803  -0.161462

