%chk=/home/boittier/MDCM/nms_sampling/methanol_geom.xyz.dir/methanol_2066.chk
%nproc=8
%mem=16000MB
#p B2PLYPD3/Def2QZVP 

methanol

0 1
C  -5.177493  -1.249508   0.918521
O  -3.762460  -1.121294   0.847708
H  -5.554720  -2.289103   0.504566
H  -5.653131  -0.444982   0.372472
H  -5.521273  -1.183216   2.003624
H  -3.513222  -1.234267   0.090580
