%chk=/home/boittier/MDCM/nms_sampling/methanol_geom.xyz.dir/methanol_467.chk
%nproc=8
%mem=16000MB
#p B2PLYPD3/Def2QZVP 

methanol

0 1
C  -5.182173  -1.259390   0.922170
O  -3.766791  -1.121426   0.854626
H  -5.489177  -2.240461   0.534313
H  -5.649395  -0.423557   0.321912
H  -5.468112  -1.155637   1.945222
H  -3.508756  -1.215511   0.013555

