%chk=/home/boittier/MDCM/nms_sampling/methanol_geom.xyz.dir/methanol_862.chk
%nproc=8
%mem=16000MB
#p B2PLYPD3/Def2QZVP 

methanol

0 1
C  -5.183778  -1.258715   0.921703
O  -3.766691  -1.121976   0.867788
H  -5.539897  -2.198351   0.564481
H  -5.671476  -0.494616   0.329143
H  -5.422816  -1.154381   1.892850
H  -3.465616  -1.185844  -0.181798

