%chk=/home/boittier/MDCM/nms_sampling/methanol_geom.xyz.dir/methanol_1143.chk
%nproc=8
%mem=16000MB
#p B2PLYPD3/Def2QZVP 

methanol

0 1
C  -5.185757  -1.248774   0.917745
O  -3.765650  -1.122279   0.847947
H  -5.504857  -2.296335   0.515776
H  -5.640855  -0.453947   0.346924
H  -5.456995  -1.173243   2.007756
H  -3.494656  -1.217521   0.105340
