%chk=/home/boittier/MDCM/nms_sampling/methanol_geom.xyz.dir/methanol_1083.chk
%nproc=8
%mem=16000MB
#p B2PLYPD3/Def2QZVP 

methanol

0 1
C  -5.193836  -1.256970   0.909299
O  -3.760325  -1.123403   0.871936
H  -5.514961  -2.170094   0.597075
H  -5.661913  -0.514893   0.354546
H  -5.462341  -1.149778   1.937453
H  -3.444411  -1.197813  -0.206976
