%chk=/home/boittier/MDCM/nms_sampling/methanol_geom.xyz.dir/methanol_2956.chk
%nproc=8
%mem=16000MB
#p B2PLYPD3/Def2QZVP 

methanol

0 1
C  -5.145176  -1.249662   0.904989
O  -3.782056  -1.121064   0.832348
H  -5.505604  -2.295010   0.489196
H  -5.797541  -0.422042   0.276005
H  -5.495721  -1.212642   2.191489
H  -3.506342  -1.224086   0.417777

