%chk=/home/boittier/MDCM/nms_sampling/methanol_geom.xyz.dir/methanol_43.chk
%nproc=8
%mem=16000MB
#p B2PLYPD3/Def2QZVP 

methanol

0 1
C  -5.177189  -1.246316   0.906063
O  -3.772465  -1.124324   0.859691
H  -5.473352  -2.255043   0.562547
H  -5.673318  -0.499359   0.357840
H  -5.464259  -1.172689   2.005997
H  -3.477607  -1.210686  -0.005985

