%chk=/home/boittier/MDCM/nms_sampling/methanol_geom.xyz.dir/methanol_3188.chk
%nproc=8
%mem=16000MB
#p B2PLYPD3/Def2QZVP 

methanol

0 1
C  -5.161041  -1.267058   0.903447
O  -3.787901  -1.116185   0.842092
H  -5.369718  -2.233551   0.568219
H  -5.677486  -0.412974   0.231526
H  -5.408993  -1.116186   2.142123
H  -3.572054  -1.261875   0.292055
