%chk=/home/boittier/MDCM/nms_sampling/methanol_geom.xyz.dir/methanol_2289.chk
%nproc=8
%mem=16000MB
#p B2PLYPD3/Def2QZVP 

methanol

0 1
C  -5.196510  -1.253582   0.918177
O  -3.763344  -1.125538   0.840827
H  -5.504070  -2.264620   0.541355
H  -5.653196  -0.417751   0.266637
H  -5.436113  -1.171176   2.067102
H  -3.410871  -1.183629   0.209328

