%chk=/home/boittier/MDCM/nms_sampling/methanol_geom.xyz.dir/methanol_3211.chk
%nproc=8
%mem=16000MB
#p B2PLYPD3/Def2QZVP 

methanol

0 1
C  -5.187747  -1.240232   0.920884
O  -3.756474  -1.131434   0.888718
H  -5.651776  -2.067990   0.584523
H  -5.521145  -0.612010   0.437689
H  -5.574662  -1.256175   1.836782
H  -3.462111  -1.168996  -0.587563

