%chk=/home/boittier/MDCM/nms_sampling/methanol_geom.xyz.dir/methanol_2492.chk
%nproc=8
%mem=16000MB
#p B2PLYPD3/Def2QZVP 

methanol

0 1
C  -5.156701  -1.257957   0.916962
O  -3.787856  -1.125761   0.839055
H  -5.383110  -2.346202   0.595612
H  -5.658299  -0.311447   0.257743
H  -5.462152  -1.142385   1.988899
H  -3.570520  -1.183925   0.292724

