%chk=/home/boittier/MDCM/nms_sampling/methanol_geom.xyz.dir/methanol_3296.chk
%nproc=8
%mem=16000MB
#p B2PLYPD3/Def2QZVP 

methanol

0 1
C  -5.200945  -1.255039   0.901872
O  -3.752424  -1.126305   0.833471
H  -5.465551  -2.346935   0.594415
H  -5.821277  -0.288792   0.276162
H  -5.496857  -1.195284   2.094122
H  -3.338627  -1.183456   0.437576
