%chk=/home/boittier/MDCM/nms_sampling/methanol_geom.xyz.dir/methanol_3401.chk
%nproc=8
%mem=16000MB
#p B2PLYPD3/Def2QZVP 

methanol

0 1
C  -5.206905  -1.260324   0.896695
O  -3.745343  -1.114204   0.848656
H  -5.497996  -2.299486   0.531918
H  -5.788076  -0.495721   0.347808
H  -5.355923  -1.147160   2.121540
H  -3.534994  -1.189725   0.207053
