%chk=/home/boittier/MDCM/nms_sampling/methanol_geom.xyz.dir/methanol_3245.chk
%nproc=8
%mem=16000MB
#p B2PLYPD3/Def2QZVP 

methanol

0 1
C  -5.173273  -1.238213   0.925803
O  -3.783054  -1.127382   0.819714
H  -5.496297  -2.390324   0.398456
H  -5.552216  -0.475731   0.313378
H  -5.428678  -1.118320   2.178362
H  -3.496046  -1.192477   0.446687
