%chk=/home/boittier/MDCM/nms_sampling/methanol_geom.xyz.dir/methanol_3185.chk
%nproc=8
%mem=16000MB
#p B2PLYPD3/Def2QZVP 

methanol

0 1
C  -5.163351  -1.257140   0.918413
O  -3.762254  -1.113626   0.841735
H  -5.551063  -2.229982   0.541568
H  -5.671883  -0.443662   0.248673
H  -5.555016  -1.218467   2.090622
H  -3.628719  -1.294898   0.183484

