%chk=/home/boittier/MDCM/nms_sampling/methanol_geom.xyz.dir/methanol_75.chk
%nproc=8
%mem=16000MB
#p B2PLYPD3/Def2QZVP 

methanol

0 1
C  -5.174997  -1.245643   0.912969
O  -3.773906  -1.124347   0.869648
H  -5.467245  -2.246701   0.563499
H  -5.685565  -0.522822   0.358372
H  -5.460395  -1.166336   1.907041
H  -3.478861  -1.208826  -0.151225

