%chk=/home/boittier/MDCM/nms_sampling/methanol_geom.xyz.dir/methanol_2013.chk
%nproc=8
%mem=16000MB
#p B2PLYPD3/Def2QZVP 

methanol

0 1
C  -5.188361  -1.250407   0.923006
O  -3.763330  -1.123112   0.840291
H  -5.455271  -2.335875   0.496260
H  -5.651728  -0.381833   0.323384
H  -5.503559  -1.160204   1.993308
H  -3.491556  -1.233537   0.227903
