%chk=/home/boittier/MDCM/nms_sampling/methanol_geom.xyz.dir/methanol_1832.chk
%nproc=8
%mem=16000MB
#p B2PLYPD3/Def2QZVP 

methanol

0 1
C  -5.176214  -1.251944   0.918018
O  -3.776890  -1.127691   0.871791
H  -5.508089  -2.190939   0.571926
H  -5.571117  -0.513019   0.387983
H  -5.457176  -1.144280   1.884186
H  -3.488670  -1.172941  -0.259948
