%chk=/home/boittier/MDCM/nms_sampling/methanol_geom.xyz.dir/methanol_852.chk
%nproc=8
%mem=16000MB
#p B2PLYPD3/Def2QZVP 

methanol

0 1
C  -5.183131  -1.252295   0.919098
O  -3.767677  -1.123851   0.871128
H  -5.540362  -2.212528   0.552698
H  -5.685089  -0.534902   0.355126
H  -5.431589  -1.147405   1.889820
H  -3.437950  -1.181849  -0.217193
