%chk=/home/boittier/MDCM/nms_sampling/methanol_geom.xyz.dir/methanol_2064.chk
%nproc=8
%mem=16000MB
#p B2PLYPD3/Def2QZVP 

methanol

0 1
C  -5.182243  -1.248246   0.917781
O  -3.764690  -1.126299   0.839694
H  -5.532000  -2.264691   0.529529
H  -5.608993  -0.388549   0.327488
H  -5.536886  -1.221537   2.058633
H  -3.467554  -1.215783   0.194469
