%chk=/home/boittier/MDCM/nms_sampling/methanol_geom.xyz.dir/methanol_2774.chk
%nproc=8
%mem=16000MB
#p B2PLYPD3/Def2QZVP 

methanol

0 1
C  -5.163025  -1.254136   0.916660
O  -3.784824  -1.124327   0.896383
H  -5.443859  -2.119404   0.636780
H  -5.609258  -0.626470   0.332569
H  -5.426024  -1.118188   1.781620
H  -3.575845  -1.182525  -0.555490
