%chk=/home/boittier/MDCM/nms_sampling/methanol_geom.xyz.dir/methanol_24.chk
%nproc=8
%mem=16000MB
#p B2PLYPD3/Def2QZVP 

methanol

0 1
C  -5.184795  -1.255509   0.907451
O  -3.759514  -1.122048   0.864329
H  -5.541905  -2.221132   0.560833
H  -5.717953  -0.497157   0.376341
H  -5.479027  -1.155519   1.975568
H  -3.464071  -1.197322  -0.084105
