%chk=/home/boittier/MDCM/nms_sampling/methanol_geom.xyz.dir/methanol_1679.chk
%nproc=8
%mem=16000MB
#p B2PLYPD3/Def2QZVP 

methanol

0 1
C  -5.159079  -1.250467   0.908791
O  -3.777956  -1.128952   0.880417
H  -5.479535  -2.176037   0.614719
H  -5.706124  -0.499347   0.369994
H  -5.538222  -1.172808   1.856605
H  -3.479557  -1.176364  -0.288956
