%chk=/home/boittier/MDCM/nms_sampling/methanol_geom.xyz.dir/methanol_1017.chk
%nproc=8
%mem=16000MB
#p B2PLYPD3/Def2QZVP 

methanol

0 1
C  -5.186114  -1.255107   0.921756
O  -3.759159  -1.124041   0.868990
H  -5.556490  -2.210716   0.523857
H  -5.699224  -0.499543   0.376534
H  -5.480485  -1.157604   1.878378
H  -3.455608  -1.177158  -0.193716
