%chk=/home/boittier/MDCM/nms_sampling/methanol_geom.xyz.dir/methanol_2089.chk
%nproc=8
%mem=16000MB
#p B2PLYPD3/Def2QZVP 

methanol

0 1
C  -5.184332  -1.256316   0.904850
O  -3.773320  -1.127564   0.844332
H  -5.441272  -2.255352   0.517810
H  -5.702050  -0.432720   0.314710
H  -5.422166  -1.129813   2.112685
H  -3.421659  -1.154990   0.237351

