%chk=/home/boittier/MDCM/nms_sampling/methanol_geom.xyz.dir/methanol_438.chk
%nproc=8
%mem=16000MB
#p B2PLYPD3/Def2QZVP 

methanol

0 1
C  -5.167397  -1.251789   0.912007
O  -3.772613  -1.124475   0.869288
H  -5.497902  -2.223453   0.532331
H  -5.716946  -0.501375   0.390843
H  -5.485966  -1.162248   1.915407
H  -3.495791  -1.188002  -0.143886
