%chk=/home/boittier/MDCM/nms_sampling/methanol_geom.xyz.dir/methanol_1886.chk
%nproc=8
%mem=16000MB
#p B2PLYPD3/Def2QZVP 

methanol

0 1
C  -5.162926  -1.248903   0.911176
O  -3.774061  -1.127270   0.879169
H  -5.505103  -2.194201   0.553745
H  -5.703518  -0.518619   0.423195
H  -5.519823  -1.177173   1.856572
H  -3.494868  -1.176560  -0.288957

