%chk=/home/boittier/MDCM/nms_sampling/methanol_geom.xyz.dir/methanol_2145.chk
%nproc=8
%mem=16000MB
#p B2PLYPD3/Def2QZVP 

methanol

0 1
C  -5.188090  -1.255448   0.921517
O  -3.757102  -1.124733   0.875301
H  -5.616832  -2.143864   0.525023
H  -5.645288  -0.565196   0.396655
H  -5.491719  -1.149816   1.892110
H  -3.447322  -1.172065  -0.331805

