%chk=/home/boittier/MDCM/nms_sampling/methanol_geom.xyz.dir/methanol_108.chk
%nproc=8
%mem=16000MB
#p B2PLYPD3/Def2QZVP 

methanol

0 1
C  -5.185637  -1.258967   0.918830
O  -3.761859  -1.119574   0.867929
H  -5.561447  -2.188545   0.547076
H  -5.658047  -0.507866   0.366778
H  -5.427396  -1.173560   1.915085
H  -3.508193  -1.197653  -0.193163
