%chk=/home/boittier/MDCM/nms_sampling/methanol_geom.xyz.dir/methanol_3254.chk
%nproc=8
%mem=16000MB
#p B2PLYPD3/Def2QZVP 

methanol

0 1
C  -5.186254  -1.254413   0.903948
O  -3.758913  -1.115035   0.840839
H  -5.357673  -2.423678   0.525802
H  -5.744902  -0.419773   0.334441
H  -5.447321  -1.098418   2.052115
H  -3.654882  -1.244788   0.344181
