%chk=/home/boittier/MDCM/nms_sampling/methanol_geom.xyz.dir/methanol_2832.chk
%nproc=8
%mem=16000MB
#p B2PLYPD3/Def2QZVP 

methanol

0 1
C  -5.160142  -1.251802   0.905352
O  -3.765226  -1.123421   0.884792
H  -5.443975  -2.132968   0.614919
H  -5.768778  -0.513639   0.333186
H  -5.574042  -1.247433   1.869965
H  -3.602825  -1.204848  -0.299893

