%chk=/home/boittier/MDCM/nms_sampling/methanol_geom.xyz.dir/methanol_2497.chk
%nproc=8
%mem=16000MB
#p B2PLYPD3/Def2QZVP 

methanol

0 1
C  -5.160304  -1.233630   0.926160
O  -3.785840  -1.130862   0.880032
H  -5.579237  -2.150444   0.492131
H  -5.530222  -0.675552   0.412454
H  -5.459618  -1.194682   1.884633
H  -3.504501  -1.158390  -0.441882
