%chk=/home/boittier/MDCM/nms_sampling/methanol_geom.xyz.dir/methanol_1737.chk
%nproc=8
%mem=16000MB
#p B2PLYPD3/Def2QZVP 

methanol

0 1
C  -5.176938  -1.251642   0.910307
O  -3.775931  -1.119932   0.869657
H  -5.490207  -2.193847   0.531729
H  -5.649253  -0.556461   0.381874
H  -5.399124  -1.166175   1.963944
H  -3.499868  -1.224648  -0.172158

