%chk=/home/boittier/MDCM/nms_sampling/methanol_geom.xyz.dir/methanol_2930.chk
%nproc=8
%mem=16000MB
#p B2PLYPD3/Def2QZVP 

methanol

0 1
C  -5.195658  -1.232865   0.916605
O  -3.762843  -1.133324   0.873447
H  -5.493587  -2.197494   0.650758
H  -5.456638  -0.574947   0.345038
H  -5.551772  -1.198420   1.901554
H  -3.521116  -1.184676  -0.324097

