%chk=/home/boittier/MDCM/nms_sampling/methanol_geom.xyz.dir/methanol_2859.chk
%nproc=8
%mem=16000MB
#p B2PLYPD3/Def2QZVP 

methanol

0 1
C  -5.177281  -1.255678   0.911993
O  -3.767384  -1.125286   0.843299
H  -5.368865  -2.277667   0.491207
H  -5.732890  -0.335274   0.316306
H  -5.579726  -1.166495   2.029186
H  -3.477837  -1.242924   0.282549

