%chk=/home/boittier/MDCM/nms_sampling/methanol_geom.xyz.dir/methanol_3118.chk
%nproc=8
%mem=16000MB
#p B2PLYPD3/Def2QZVP 

methanol

0 1
C  -5.180103  -1.265365   0.894510
O  -3.778265  -1.112662   0.896535
H  -5.512886  -2.118087   0.614849
H  -5.696740  -0.592372   0.486339
H  -5.276515  -1.151701   1.857883
H  -3.479689  -1.230110  -0.502781

