%chk=/home/boittier/MDCM/nms_sampling/methanol_geom.xyz.dir/methanol_1897.chk
%nproc=8
%mem=16000MB
#p B2PLYPD3/Def2QZVP 

methanol

0 1
C  -5.188400  -1.254048   0.918302
O  -3.769727  -1.126005   0.838305
H  -5.537682  -2.289488   0.536676
H  -5.639626  -0.386169   0.312004
H  -5.427865  -1.168267   2.054701
H  -3.392024  -1.179889   0.223772

