%chk=/home/boittier/MDCM/nms_sampling/methanol_geom.xyz.dir/methanol_2805.chk
%nproc=8
%mem=16000MB
#p B2PLYPD3/Def2QZVP 

methanol

0 1
C  -5.197275  -1.282806   0.906643
O  -3.757486  -1.116851   0.877292
H  -5.527231  -2.068897   0.632224
H  -5.702930  -0.527020   0.286297
H  -5.372201  -1.071085   1.966647
H  -3.481916  -1.171089  -0.263913
