%chk=/home/boittier/MDCM/nms_sampling/methanol_geom.xyz.dir/methanol_1499.chk
%nproc=8
%mem=16000MB
#p B2PLYPD3/Def2QZVP 

methanol

0 1
C  -5.184326  -1.263324   0.903722
O  -3.767376  -1.115093   0.857686
H  -5.509855  -2.240823   0.552193
H  -5.750232  -0.489095   0.344277
H  -5.350866  -1.137072   2.038118
H  -3.477262  -1.215985   0.044542
