%chk=/home/boittier/MDCM/nms_sampling/methanol_geom.xyz.dir/methanol_2715.chk
%nproc=8
%mem=16000MB
#p B2PLYPD3/Def2QZVP 

methanol

0 1
C  -5.175021  -1.268570   0.922292
O  -3.766810  -1.119907   0.826053
H  -5.633983  -2.293209   0.508960
H  -5.668565  -0.303366   0.321906
H  -5.465590  -1.152938   2.093910
H  -3.426782  -1.206812   0.356867
