%chk=/home/boittier/MDCM/nms_sampling/methanol_geom.xyz.dir/methanol_669.chk
%nproc=8
%mem=16000MB
#p B2PLYPD3/Def2QZVP 

methanol

0 1
C  -5.174385  -1.253370   0.909852
O  -3.771163  -1.119916   0.856732
H  -5.477182  -2.254539   0.550181
H  -5.696506  -0.482213   0.329859
H  -5.442814  -1.166188   2.007576
H  -3.524854  -1.222341   0.035808
