%chk=/home/boittier/MDCM/nms_sampling/methanol_geom.xyz.dir/methanol_49.chk
%nproc=8
%mem=16000MB
#p B2PLYPD3/Def2QZVP 

methanol

0 1
C  -5.182625  -1.259753   0.909811
O  -3.760127  -1.118121   0.860912
H  -5.536149  -2.247584   0.556185
H  -5.739583  -0.468465   0.364746
H  -5.450360  -1.152241   1.966104
H  -3.493450  -1.213943  -0.029222

