%chk=/home/boittier/MDCM/nms_sampling/methanol_geom.xyz.dir/methanol_3510.chk
%nproc=8
%mem=16000MB
#p B2PLYPD3/Def2QZVP 

methanol

0 1
C  -5.192066  -1.256836   0.908382
O  -3.773143  -1.125882   0.831353
H  -5.381733  -2.368458   0.508260
H  -5.798562  -0.370565   0.244680
H  -5.390431  -1.074034   2.121976
H  -3.335915  -1.177462   0.479852
