%chk=/home/boittier/MDCM/nms_sampling/methanol_geom.xyz.dir/methanol_1741.chk
%nproc=8
%mem=16000MB
#p B2PLYPD3/Def2QZVP 

methanol

0 1
C  -5.161817  -1.248926   0.905686
O  -3.775013  -1.125461   0.876490
H  -5.568538  -2.180939   0.596502
H  -5.692127  -0.557047   0.398415
H  -5.482054  -1.179820   1.929039
H  -3.480510  -1.175509  -0.273164
