%chk=/home/boittier/MDCM/nms_sampling/methanol_geom.xyz.dir/methanol_3355.chk
%nproc=8
%mem=16000MB
#p B2PLYPD3/Def2QZVP 

methanol

0 1
C  -5.166172  -1.285420   0.940392
O  -3.769349  -1.112765   0.883101
H  -5.684113  -2.060072   0.586140
H  -5.709675  -0.468676   0.295475
H  -5.415968  -1.123742   1.734728
H  -3.445518  -1.222336  -0.481277
