%chk=/home/boittier/MDCM/nms_sampling/methanol_geom.xyz.dir/methanol_3276.chk
%nproc=8
%mem=16000MB
#p B2PLYPD3/Def2QZVP 

methanol

0 1
C  -5.177210  -1.258716   0.936792
O  -3.772600  -1.130333   0.879637
H  -5.601636  -2.074236   0.533638
H  -5.656302  -0.467862   0.338301
H  -5.479029  -1.220536   1.773937
H  -3.333874  -1.146600  -0.412654
