%chk=/home/boittier/MDCM/nms_sampling/methanol_geom.xyz.dir/methanol_3566.chk
%nproc=8
%mem=16000MB
#p B2PLYPD3/Def2QZVP 

methanol

0 1
C  -5.208160  -1.253169   0.929609
O  -3.758132  -1.132553   0.889948
H  -5.508245  -2.122083   0.615747
H  -5.570732  -0.581949   0.320798
H  -5.474149  -1.099699   1.751137
H  -3.397023  -1.130787  -0.537993

