%chk=/home/boittier/MDCM/nms_sampling/methanol_geom.xyz.dir/methanol_11.chk
%nproc=8
%mem=16000MB
#p B2PLYPD3/Def2QZVP 

methanol

0 1
C  -5.184006  -1.248339   0.912416
O  -3.767216  -1.123023   0.865583
H  -5.514709  -2.228723   0.547814
H  -5.638936  -0.526271   0.384136
H  -5.456674  -1.167499   1.952577
H  -3.482743  -1.211904  -0.134802
