%chk=/home/boittier/MDCM/nms_sampling/methanol_geom.xyz.dir/methanol_1162.chk
%nproc=8
%mem=16000MB
#p B2PLYPD3/Def2QZVP 

methanol

0 1
C  -5.179300  -1.249516   0.910267
O  -3.770243  -1.124363   0.870971
H  -5.461544  -2.223460   0.561759
H  -5.686152  -0.499305   0.380738
H  -5.468494  -1.174494   1.907097
H  -3.480793  -1.204121  -0.161205

