%chk=/home/boittier/MDCM/nms_sampling/methanol_geom.xyz.dir/methanol_3299.chk
%nproc=8
%mem=16000MB
#p B2PLYPD3/Def2QZVP 

methanol

0 1
C  -5.196171  -1.264679   0.914653
O  -3.741904  -1.118616   0.895919
H  -5.538008  -2.144439   0.511576
H  -5.835975  -0.565534   0.450683
H  -5.469579  -1.145889   1.752879
H  -3.504626  -1.165182  -0.486294

