%chk=/home/boittier/MDCM/nms_sampling/methanol_geom.xyz.dir/methanol_144.chk
%nproc=8
%mem=16000MB
#p B2PLYPD3/Def2QZVP 

methanol

0 1
C  -5.177871  -1.258111   0.910901
O  -3.768351  -1.119240   0.869692
H  -5.519178  -2.222973   0.567315
H  -5.711398  -0.503332   0.376751
H  -5.427357  -1.143491   1.916555
H  -3.487527  -1.211680  -0.158952
