%chk=/home/boittier/MDCM/nms_sampling/methanol_geom.xyz.dir/methanol_865.chk
%nproc=8
%mem=16000MB
#p B2PLYPD3/Def2QZVP 

methanol

0 1
C  -5.182203  -1.253518   0.921447
O  -3.769010  -1.124991   0.867836
H  -5.535940  -2.219165   0.539804
H  -5.680415  -0.499014   0.359022
H  -5.425322  -1.160997   1.884959
H  -3.440329  -1.166138  -0.176200
