%chk=/home/boittier/MDCM/nms_sampling/methanol_geom.xyz.dir/methanol_3140.chk
%nproc=8
%mem=16000MB
#p B2PLYPD3/Def2QZVP 

methanol

0 1
C  -5.155588  -1.233703   0.938904
O  -3.783259  -1.127324   0.834125
H  -5.511391  -2.370950   0.391181
H  -5.669378  -0.400975   0.329607
H  -5.516553  -1.243657   1.968700
H  -3.470915  -1.220815   0.263530
