%chk=/home/boittier/MDCM/nms_sampling/methanol_geom.xyz.dir/methanol_1727.chk
%nproc=8
%mem=16000MB
#p B2PLYPD3/Def2QZVP 

methanol

0 1
C  -5.181758  -1.266751   0.923932
O  -3.759705  -1.119464   0.869234
H  -5.557815  -2.162340   0.556285
H  -5.669187  -0.429998   0.362861
H  -5.506745  -1.169019   1.853347
H  -3.494444  -1.224151  -0.215329

