%chk=/home/boittier/MDCM/nms_sampling/methanol_geom.xyz.dir/methanol_932.chk
%nproc=8
%mem=16000MB
#p B2PLYPD3/Def2QZVP 

methanol

0 1
C  -5.178273  -1.248892   0.921073
O  -3.763997  -1.124091   0.867828
H  -5.528553  -2.236786   0.538964
H  -5.671652  -0.515798   0.363051
H  -5.503339  -1.164236   1.886094
H  -3.504976  -1.198045  -0.175902
