%chk=/home/boittier/MDCM/nms_sampling/methanol_geom.xyz.dir/methanol_1848.chk
%nproc=8
%mem=16000MB
#p B2PLYPD3/Def2QZVP 

methanol

0 1
C  -5.176920  -1.252277   0.915581
O  -3.775562  -1.126178   0.852190
H  -5.501621  -2.237523   0.547500
H  -5.600255  -0.456463   0.337279
H  -5.485348  -1.139010   2.012034
H  -3.451980  -1.208980   0.034157
