%chk=/home/boittier/MDCM/nms_sampling/methanol_geom.xyz.dir/methanol_202.chk
%nproc=8
%mem=16000MB
#p B2PLYPD3/Def2QZVP 

methanol

0 1
C  -5.183715  -1.249523   0.921667
O  -3.766141  -1.124153   0.864625
H  -5.522419  -2.244894   0.531785
H  -5.653754  -0.507001   0.361547
H  -5.456263  -1.161631   1.901785
H  -3.479773  -1.190571  -0.137637
