%chk=/home/boittier/MDCM/nms_sampling/methanol_geom.xyz.dir/methanol_3.chk
%nproc=8
%mem=16000MB
#p B2PLYPD3/Def2QZVP 

methanol

0 1
C  -5.191860  -1.252577   0.909418
O  -3.759400  -1.123609   0.868057
H  -5.500682  -2.240291   0.565518
H  -5.719495  -0.512464   0.366950
H  -5.443176  -1.149156   1.934178
H  -3.461021  -1.176293  -0.121368

