%chk=/home/boittier/MDCM/nms_sampling/methanol_geom.xyz.dir/methanol_2377.chk
%nproc=8
%mem=16000MB
#p B2PLYPD3/Def2QZVP 

methanol

0 1
C  -5.186856  -1.268762   0.926250
O  -3.755631  -1.116939   0.868307
H  -5.585896  -2.176663   0.580271
H  -5.681224  -0.457066   0.320358
H  -5.475039  -1.142485   1.857945
H  -3.494712  -1.224382  -0.214384
