%chk=/home/boittier/MDCM/nms_sampling/methanol_geom.xyz.dir/methanol_764.chk
%nproc=8
%mem=16000MB
#p B2PLYPD3/Def2QZVP 

methanol

0 1
C  -5.183264  -1.261287   0.919061
O  -3.767411  -1.120781   0.871038
H  -5.521576  -2.195896   0.540502
H  -5.683545  -0.505900   0.365711
H  -5.406027  -1.134744   1.884712
H  -3.484259  -1.184214  -0.208248

