%chk=/home/boittier/MDCM/nms_sampling/methanol_geom.xyz.dir/methanol_3430.chk
%nproc=8
%mem=16000MB
#p B2PLYPD3/Def2QZVP 

methanol

0 1
C  -5.152046  -1.252498   0.905047
O  -3.782734  -1.123909   0.891151
H  -5.569617  -2.123631   0.566523
H  -5.640087  -0.591237   0.502626
H  -5.511872  -1.145175   1.850689
H  -3.493684  -1.215242  -0.499630

