%chk=/home/boittier/MDCM/nms_sampling/methanol_geom.xyz.dir/methanol_2460.chk
%nproc=8
%mem=16000MB
#p B2PLYPD3/Def2QZVP 

methanol

0 1
C  -5.174167  -1.245868   0.930037
O  -3.776897  -1.128446   0.826539
H  -5.436961  -2.397459   0.419727
H  -5.674976  -0.383483   0.283773
H  -5.457800  -1.130903   2.053325
H  -3.483481  -1.165812   0.423058

