%chk=/home/boittier/MDCM/nms_sampling/methanol_geom.xyz.dir/methanol_2589.chk
%nproc=8
%mem=16000MB
#p B2PLYPD3/Def2QZVP 

methanol

0 1
C  -5.189954  -1.259146   0.905536
O  -3.759493  -1.116650   0.844744
H  -5.399240  -2.371536   0.534218
H  -5.728973  -0.439276   0.329382
H  -5.418158  -1.081566   2.048032
H  -3.604033  -1.214977   0.260936
