%chk=/home/boittier/MDCM/nms_sampling/methanol_geom.xyz.dir/methanol_3163.chk
%nproc=8
%mem=16000MB
#p B2PLYPD3/Def2QZVP 

methanol

0 1
C  -5.184734  -1.250254   0.921844
O  -3.753049  -1.127198   0.889575
H  -5.726768  -2.135713   0.547385
H  -5.705287  -0.665306   0.428776
H  -5.515009  -1.111013   1.822625
H  -3.362105  -1.141644  -0.553607

