%chk=/home/boittier/MDCM/nms_sampling/methanol_geom.xyz.dir/methanol_2782.chk
%nproc=8
%mem=16000MB
#p B2PLYPD3/Def2QZVP 

methanol

0 1
C  -5.175904  -1.276076   0.917105
O  -3.769362  -1.118980   0.824866
H  -5.594378  -2.256845   0.480045
H  -5.696752  -0.311726   0.309062
H  -5.422432  -1.123830   2.155333
H  -3.429443  -1.190730   0.413763

