%chk=/home/boittier/MDCM/nms_sampling/methanol_geom.xyz.dir/methanol_1862.chk
%nproc=8
%mem=16000MB
#p B2PLYPD3/Def2QZVP 

methanol

0 1
C  -5.198668  -1.254110   0.900521
O  -3.759879  -1.125297   0.850791
H  -5.480405  -2.279764   0.522987
H  -5.695221  -0.466497   0.394590
H  -5.428067  -1.122048   2.076971
H  -3.434201  -1.164389   0.136355
