%chk=/home/boittier/MDCM/nms_sampling/methanol_geom.xyz.dir/methanol_1532.chk
%nproc=8
%mem=16000MB
#p B2PLYPD3/Def2QZVP 

methanol

0 1
C  -5.170216  -1.257555   0.906231
O  -3.777029  -1.120574   0.848378
H  -5.447995  -2.251886   0.550159
H  -5.700247  -0.456422   0.290107
H  -5.433527  -1.140537   2.085773
H  -3.513601  -1.218115   0.174257
