%chk=/home/boittier/MDCM/nms_sampling/methanol_geom.xyz.dir/methanol_1488.chk
%nproc=8
%mem=16000MB
#p B2PLYPD3/Def2QZVP 

methanol

0 1
C  -5.174731  -1.260102   0.920818
O  -3.769219  -1.119560   0.872787
H  -5.573143  -2.232444   0.578774
H  -5.706381  -0.504947   0.367351
H  -5.388501  -1.142988   1.839117
H  -3.499226  -1.172909  -0.248686
