%chk=/home/boittier/MDCM/nms_sampling/methanol_geom.xyz.dir/methanol_893.chk
%nproc=8
%mem=16000MB
#p B2PLYPD3/Def2QZVP 

methanol

0 1
C  -5.180029  -1.261258   0.922749
O  -3.769114  -1.118745   0.861110
H  -5.529246  -2.235322   0.530731
H  -5.678542  -0.469391   0.340842
H  -5.411559  -1.136085   1.913425
H  -3.488120  -1.211653  -0.082972
