%chk=/home/boittier/MDCM/nms_sampling/methanol_geom.xyz.dir/methanol_1432.chk
%nproc=8
%mem=16000MB
#p B2PLYPD3/Def2QZVP 

methanol

0 1
C  -5.170212  -1.256071   0.909417
O  -3.779301  -1.122350   0.876570
H  -5.458188  -2.136105   0.599004
H  -5.625923  -0.545277   0.333552
H  -5.455306  -1.151191   1.933195
H  -3.518032  -1.224421  -0.262941

