%chk=/home/boittier/MDCM/nms_sampling/methanol_geom.xyz.dir/methanol_707.chk
%nproc=8
%mem=16000MB
#p B2PLYPD3/Def2QZVP 

methanol

0 1
C  -5.181759  -1.261355   0.912107
O  -3.767914  -1.119583   0.873674
H  -5.514578  -2.205117   0.573606
H  -5.711896  -0.506807   0.375362
H  -5.401172  -1.132448   1.888387
H  -3.478545  -1.194010  -0.214786

