%chk=/home/boittier/MDCM/nms_sampling/methanol_geom.xyz.dir/methanol_126.chk
%nproc=8
%mem=16000MB
#p B2PLYPD3/Def2QZVP 

methanol

0 1
C  -5.174997  -1.255642   0.915309
O  -3.771028  -1.120206   0.854607
H  -5.476524  -2.285090   0.530170
H  -5.718097  -0.460497   0.326481
H  -5.427404  -1.142956   1.974729
H  -3.514779  -1.205662   0.063921
