%chk=/home/boittier/MDCM/nms_sampling/methanol_geom.xyz.dir/methanol_1932.chk
%nproc=8
%mem=16000MB
#p B2PLYPD3/Def2QZVP 

methanol

0 1
C  -5.181265  -1.254331   0.918716
O  -3.763992  -1.119132   0.846040
H  -5.532563  -2.268188   0.522865
H  -5.661142  -0.477393   0.293810
H  -5.438692  -1.169264   2.049091
H  -3.542566  -1.212201   0.126333
