%chk=/home/boittier/MDCM/nms_sampling/methanol_geom.xyz.dir/methanol_1313.chk
%nproc=8
%mem=16000MB
#p B2PLYPD3/Def2QZVP 

methanol

0 1
C  -5.188935  -1.262684   0.919286
O  -3.754112  -1.116950   0.870464
H  -5.606468  -2.140484   0.583628
H  -5.668546  -0.524370   0.323054
H  -5.460429  -1.182119   1.925191
H  -3.502737  -1.222192  -0.244867
