%chk=/home/boittier/MDCM/nms_sampling/methanol_geom.xyz.dir/methanol_268.chk
%nproc=8
%mem=16000MB
#p B2PLYPD3/Def2QZVP 

methanol

0 1
C  -5.173426  -1.257498   0.921800
O  -3.769249  -1.121894   0.851259
H  -5.496809  -2.253988   0.517714
H  -5.674231  -0.419877   0.319398
H  -5.478414  -1.170528   1.967828
H  -3.528005  -1.205951   0.068815
