%chk=/home/boittier/MDCM/nms_sampling/methanol_geom.xyz.dir/methanol_2619.chk
%nproc=8
%mem=16000MB
#p B2PLYPD3/Def2QZVP 

methanol

0 1
C  -5.167447  -1.247778   0.894787
O  -3.765520  -1.111208   0.834993
H  -5.492400  -2.351175   0.479755
H  -5.716733  -0.444393   0.413825
H  -5.476942  -1.221077   2.189356
H  -3.631390  -1.306665   0.372962

