%chk=/home/boittier/MDCM/nms_sampling/methanol_geom.xyz.dir/methanol_65.chk
%nproc=8
%mem=16000MB
#p B2PLYPD3/Def2QZVP 

methanol

0 1
C  -5.189733  -1.255669   0.919634
O  -3.763030  -1.123884   0.865592
H  -5.542321  -2.208108   0.537015
H  -5.646112  -0.514802   0.360647
H  -5.439703  -1.138525   1.925597
H  -3.461919  -1.176697  -0.159106
