%chk=/home/boittier/MDCM/nms_sampling/methanol_geom.xyz.dir/methanol_1697.chk
%nproc=8
%mem=16000MB
#p B2PLYPD3/Def2QZVP 

methanol

0 1
C  -5.194487  -1.248736   0.923792
O  -3.759448  -1.123507   0.852967
H  -5.524343  -2.328133   0.531908
H  -5.663666  -0.482059   0.332704
H  -5.430067  -1.132872   1.935465
H  -3.478798  -1.178597   0.024229

