%chk=/home/boittier/MDCM/nms_sampling/methanol_geom.xyz.dir/methanol_950.chk
%nproc=8
%mem=16000MB
#p B2PLYPD3/Def2QZVP 

methanol

0 1
C  -5.183209  -1.259316   0.913290
O  -3.760914  -1.120676   0.852450
H  -5.497957  -2.255301   0.544588
H  -5.751722  -0.416636   0.310748
H  -5.470751  -1.171854   1.995212
H  -3.476140  -1.205747   0.103608

