%chk=/home/boittier/MDCM/nms_sampling/methanol_geom.xyz.dir/methanol_2917.chk
%nproc=8
%mem=16000MB
#p B2PLYPD3/Def2QZVP 

methanol

0 1
C  -5.173108  -1.273657   0.930268
O  -3.772956  -1.120627   0.871770
H  -5.579397  -2.083377   0.551945
H  -5.712799  -0.395217   0.311862
H  -5.419578  -1.219926   1.829684
H  -3.400147  -1.189043  -0.254518
