%chk=/home/boittier/MDCM/nms_sampling/methanol_geom.xyz.dir/methanol_1784.chk
%nproc=8
%mem=16000MB
#p B2PLYPD3/Def2QZVP 

methanol

0 1
C  -5.174462  -1.259718   0.899018
O  -3.761500  -1.118609   0.871263
H  -5.523384  -2.192401   0.587646
H  -5.712688  -0.527701   0.399425
H  -5.487200  -1.145177   1.984401
H  -3.567836  -1.211225  -0.157375
