%chk=/home/boittier/MDCM/nms_sampling/methanol_geom.xyz.dir/methanol_801.chk
%nproc=8
%mem=16000MB
#p B2PLYPD3/Def2QZVP 

methanol

0 1
C  -5.182653  -1.256498   0.917382
O  -3.763646  -1.123304   0.866898
H  -5.557725  -2.190017   0.552002
H  -5.650865  -0.488001   0.377499
H  -5.489090  -1.161098   1.918251
H  -3.462228  -1.201437  -0.177175
