%chk=/home/boittier/MDCM/nms_sampling/methanol_geom.xyz.dir/methanol_2733.chk
%nproc=8
%mem=16000MB
#p B2PLYPD3/Def2QZVP 

methanol

0 1
C  -5.183271  -1.245500   0.915576
O  -3.768082  -1.128573   0.880539
H  -5.683056  -2.162990   0.563565
H  -5.658656  -0.647940   0.413927
H  -5.381097  -1.162035   1.904268
H  -3.365493  -1.106887  -0.415709

