%chk=/home/boittier/MDCM/nms_sampling/methanol_geom.xyz.dir/methanol_2586.chk
%nproc=8
%mem=16000MB
#p B2PLYPD3/Def2QZVP 

methanol

0 1
C  -5.169096  -1.238990   0.890686
O  -3.763503  -1.124078   0.902075
H  -5.495647  -2.148092   0.614244
H  -5.708006  -0.695514   0.486138
H  -5.595664  -1.142152   1.867847
H  -3.529733  -1.243948  -0.559739
