%chk=/home/boittier/MDCM/nms_sampling/methanol_geom.xyz.dir/methanol_2353.chk
%nproc=8
%mem=16000MB
#p B2PLYPD3/Def2QZVP 

methanol

0 1
C  -5.171942  -1.263296   0.908055
O  -3.766533  -1.120522   0.884773
H  -5.551232  -2.180091   0.587187
H  -5.793625  -0.523540   0.410796
H  -5.426483  -1.136033   1.833339
H  -3.468250  -1.165074  -0.341228
