%chk=/home/boittier/MDCM/nms_sampling/methanol_geom.xyz.dir/methanol_2959.chk
%nproc=8
%mem=16000MB
#p B2PLYPD3/Def2QZVP 

methanol

0 1
C  -5.189693  -1.271797   0.927097
O  -3.743454  -1.113728   0.826762
H  -5.547246  -2.374473   0.427708
H  -5.852626  -0.299925   0.296052
H  -5.460788  -1.145274   2.033407
H  -3.537455  -1.196409   0.455955

