%chk=/home/boittier/MDCM/nms_sampling/methanol_geom.xyz.dir/methanol_859.chk
%nproc=8
%mem=16000MB
#p B2PLYPD3/Def2QZVP 

methanol

0 1
C  -5.177037  -1.255710   0.908642
O  -3.768264  -1.125813   0.870338
H  -5.527537  -2.173243   0.588684
H  -5.706083  -0.488285   0.357762
H  -5.473448  -1.179591   1.939327
H  -3.442202  -1.170301  -0.169353
