%chk=/home/boittier/MDCM/nms_sampling/methanol_geom.xyz.dir/methanol_3446.chk
%nproc=8
%mem=16000MB
#p B2PLYPD3/Def2QZVP 

methanol

0 1
C  -5.204281  -1.256822   0.923319
O  -3.747885  -1.126271   0.858407
H  -5.646270  -2.131775   0.577073
H  -5.643120  -0.479650   0.280921
H  -5.529504  -1.192735   1.990993
H  -3.335191  -1.192221  -0.113907

