%chk=/home/boittier/MDCM/nms_sampling/methanol_geom.xyz.dir/methanol_2630.chk
%nproc=8
%mem=16000MB
#p B2PLYPD3/Def2QZVP 

methanol

0 1
C  -5.178733  -1.279591   0.886936
O  -3.765201  -1.120397   0.859931
H  -5.520575  -2.106804   0.614990
H  -5.773916  -0.362170   0.376870
H  -5.401441  -1.210208   2.094956
H  -3.470329  -1.144909   0.054224

