%chk=/home/boittier/MDCM/nms_sampling/methanol_geom.xyz.dir/methanol_1580.chk
%nproc=8
%mem=16000MB
#p B2PLYPD3/Def2QZVP 

methanol

0 1
C  -5.177380  -1.258635   0.909119
O  -3.763717  -1.120604   0.872658
H  -5.491754  -2.126078   0.565174
H  -5.653693  -0.516934   0.356536
H  -5.533743  -1.173800   1.958510
H  -3.538994  -1.243030  -0.210303

