%chk=/home/boittier/MDCM/nms_sampling/methanol_geom.xyz.dir/methanol_2494.chk
%nproc=8
%mem=16000MB
#p B2PLYPD3/Def2QZVP 

methanol

0 1
C  -5.160065  -1.270007   0.893243
O  -3.776921  -1.115522   0.883784
H  -5.506204  -2.087238   0.687966
H  -5.655966  -0.527367   0.371586
H  -5.489511  -1.122901   1.955229
H  -3.559071  -1.269427  -0.337389
