%chk=/home/boittier/MDCM/nms_sampling/methanol_geom.xyz.dir/methanol_496.chk
%nproc=8
%mem=16000MB
#p B2PLYPD3/Def2QZVP 

methanol

0 1
C  -5.187714  -1.252276   0.917920
O  -3.762986  -1.125107   0.869249
H  -5.526181  -2.177018   0.558817
H  -5.623545  -0.515481   0.356849
H  -5.477047  -1.180513   1.918109
H  -3.484485  -1.187101  -0.209382

