%chk=/home/boittier/MDCM/nms_sampling/methanol_geom.xyz.dir/methanol_1751.chk
%nproc=8
%mem=16000MB
#p B2PLYPD3/Def2QZVP 

methanol

0 1
C  -5.175279  -1.268343   0.914181
O  -3.770236  -1.118650   0.871715
H  -5.575237  -2.124197   0.584930
H  -5.673862  -0.464345   0.366122
H  -5.425902  -1.177662   1.913332
H  -3.462279  -1.210225  -0.235316
