%chk=/home/boittier/MDCM/nms_sampling/methanol_geom.xyz.dir/methanol_619.chk
%nproc=8
%mem=16000MB
#p B2PLYPD3/Def2QZVP 

methanol

0 1
C  -5.176164  -1.256008   0.906275
O  -3.772703  -1.120938   0.871484
H  -5.490216  -2.175542   0.585629
H  -5.653199  -0.508727   0.378268
H  -5.437769  -1.178575   1.948733
H  -3.511818  -1.216665  -0.187245
