%chk=/home/boittier/MDCM/nms_sampling/methanol_geom.xyz.dir/methanol_2293.chk
%nproc=8
%mem=16000MB
#p B2PLYPD3/Def2QZVP 

methanol

0 1
C  -5.172186  -1.249821   0.907246
O  -3.768705  -1.127598   0.870040
H  -5.543174  -2.196279   0.542024
H  -5.728180  -0.541814   0.388032
H  -5.489874  -1.157674   1.965434
H  -3.441193  -1.154657  -0.159596
