%chk=/home/boittier/MDCM/nms_sampling/methanol_geom.xyz.dir/methanol_1469.chk
%nproc=8
%mem=16000MB
#p B2PLYPD3/Def2QZVP 

methanol

0 1
C  -5.170394  -1.254625   0.913638
O  -3.764827  -1.117582   0.860760
H  -5.478141  -2.265062   0.498513
H  -5.744972  -0.467243   0.379831
H  -5.507200  -1.167669   1.943794
H  -3.557772  -1.249814  -0.007282

