%chk=/home/boittier/MDCM/nms_sampling/methanol_geom.xyz.dir/methanol_752.chk
%nproc=8
%mem=16000MB
#p B2PLYPD3/Def2QZVP 

methanol

0 1
C  -5.186637  -1.258070   0.915178
O  -3.760985  -1.124266   0.853381
H  -5.529905  -2.222151   0.546008
H  -5.683660  -0.444631   0.318871
H  -5.485883  -1.156892   2.008065
H  -3.454844  -1.184929   0.042555
