%chk=/home/boittier/MDCM/nms_sampling/methanol_geom.xyz.dir/methanol_194.chk
%nproc=8
%mem=16000MB
#p B2PLYPD3/Def2QZVP 

methanol

0 1
C  -5.175232  -1.256233   0.913392
O  -3.771234  -1.119817   0.867276
H  -5.467255  -2.231631   0.559343
H  -5.695672  -0.501640   0.342703
H  -5.443454  -1.139106   1.923313
H  -3.524144  -1.221488  -0.114638

