%chk=/home/boittier/MDCM/nms_sampling/methanol_geom.xyz.dir/methanol_3396.chk
%nproc=8
%mem=16000MB
#p B2PLYPD3/Def2QZVP 

methanol

0 1
C  -5.150966  -1.252660   0.896891
O  -3.783585  -1.115962   0.897484
H  -5.510740  -2.075382   0.621476
H  -5.738544  -0.676703   0.373200
H  -5.416693  -1.195597   1.912960
H  -3.552305  -1.245990  -0.502378
