%chk=/home/boittier/MDCM/nms_sampling/methanol_geom.xyz.dir/methanol_352.chk
%nproc=8
%mem=16000MB
#p B2PLYPD3/Def2QZVP 

methanol

0 1
C  -5.181252  -1.252346   0.922436
O  -3.761853  -1.121442   0.868217
H  -5.546461  -2.217878   0.523232
H  -5.678579  -0.511522   0.370672
H  -5.472770  -1.183092   1.884459
H  -3.509494  -1.203158  -0.189067

