%chk=/home/boittier/MDCM/nms_sampling/methanol_geom.xyz.dir/methanol_986.chk
%nproc=8
%mem=16000MB
#p B2PLYPD3/Def2QZVP 

methanol

0 1
C  -5.177189  -1.250755   0.915857
O  -3.772200  -1.125562   0.853804
H  -5.484411  -2.239567   0.548304
H  -5.640891  -0.464620   0.312810
H  -5.471124  -1.172693   2.002989
H  -3.491935  -1.192570   0.036414
