%chk=/home/boittier/MDCM/nms_sampling/methanol_geom.xyz.dir/methanol_2906.chk
%nproc=8
%mem=16000MB
#p B2PLYPD3/Def2QZVP 

methanol

0 1
C  -5.190090  -1.283615   0.927248
O  -3.748422  -1.116463   0.885317
H  -5.710337  -1.998621   0.640840
H  -5.612417  -0.537120   0.310463
H  -5.470715  -1.124763   1.838169
H  -3.511957  -1.181554  -0.539232
