%chk=/home/boittier/MDCM/nms_sampling/methanol_geom.xyz.dir/methanol_439.chk
%nproc=8
%mem=16000MB
#p B2PLYPD3/Def2QZVP 

methanol

0 1
C  -5.182841  -1.254453   0.913260
O  -3.764256  -1.123580   0.853708
H  -5.489140  -2.262818   0.541629
H  -5.745079  -0.431675   0.316726
H  -5.474706  -1.168256   1.988545
H  -3.440124  -1.196708   0.087070

