%chk=/home/boittier/MDCM/nms_sampling/methanol_geom.xyz.dir/methanol_3427.chk
%nproc=8
%mem=16000MB
#p B2PLYPD3/Def2QZVP 

methanol

0 1
C  -5.165894  -1.280634   0.922016
O  -3.764547  -1.116640   0.826500
H  -5.694689  -2.270384   0.553971
H  -5.718072  -0.308949   0.269756
H  -5.443988  -1.116915   2.106531
H  -3.477339  -1.175018   0.346176

