%chk=/home/boittier/MDCM/nms_sampling/methanol_geom.xyz.dir/methanol_2899.chk
%nproc=8
%mem=16000MB
#p B2PLYPD3/Def2QZVP 

methanol

0 1
C  -5.168454  -1.244886   0.921449
O  -3.775545  -1.127478   0.881826
H  -5.674182  -2.146325   0.544556
H  -5.633821  -0.648541   0.407386
H  -5.442232  -1.155747   1.876546
H  -3.392044  -1.154654  -0.453049

