%chk=/home/boittier/MDCM/nms_sampling/methanol_geom.xyz.dir/methanol_2169.chk
%nproc=8
%mem=16000MB
#p B2PLYPD3/Def2QZVP 

methanol

0 1
C  -5.192333  -1.249506   0.916677
O  -3.757153  -1.126155   0.875394
H  -5.571286  -2.174113   0.536698
H  -5.691794  -0.561680   0.385714
H  -5.462393  -1.182070   1.897845
H  -3.426692  -1.157723  -0.282426

