%chk=/home/boittier/MDCM/nms_sampling/methanol_geom.xyz.dir/methanol_3116.chk
%nproc=8
%mem=16000MB
#p B2PLYPD3/Def2QZVP 

methanol

0 1
C  -5.198919  -1.272055   0.910645
O  -3.748502  -1.109842   0.882712
H  -5.567159  -2.110313   0.555648
H  -5.699381  -0.593409   0.384868
H  -5.418029  -1.103494   1.913268
H  -3.533086  -1.260741  -0.366958

