%chk=/home/boittier/MDCM/nms_sampling/methanol_geom.xyz.dir/methanol_1513.chk
%nproc=8
%mem=16000MB
#p B2PLYPD3/Def2QZVP 

methanol

0 1
C  -5.181458  -1.247074   0.907530
O  -3.775849  -1.126730   0.845137
H  -5.417996  -2.272204   0.510144
H  -5.675205  -0.440336   0.320784
H  -5.438310  -1.185469   2.088677
H  -3.451024  -1.192690   0.218991

