%chk=/home/boittier/MDCM/nms_sampling/methanol_geom.xyz.dir/methanol_1731.chk
%nproc=8
%mem=16000MB
#p B2PLYPD3/Def2QZVP 

methanol

0 1
C  -5.181999  -1.246887   0.911617
O  -3.761353  -1.124456   0.851339
H  -5.450780  -2.286848   0.508741
H  -5.747650  -0.409250   0.350010
H  -5.533918  -1.217337   1.992577
H  -3.471872  -1.220728   0.141676
