%chk=/home/boittier/MDCM/nms_sampling/methanol_geom.xyz.dir/methanol_1719.chk
%nproc=8
%mem=16000MB
#p B2PLYPD3/Def2QZVP 

methanol

0 1
C  -5.176085  -1.263379   0.905211
O  -3.767647  -1.119933   0.850580
H  -5.538330  -2.237086   0.522993
H  -5.760521  -0.421604   0.365317
H  -5.396293  -1.183575   2.057845
H  -3.476255  -1.169511   0.132674
