%chk=/home/boittier/MDCM/nms_sampling/methanol_geom.xyz.dir/methanol_3073.chk
%nproc=8
%mem=16000MB
#p B2PLYPD3/Def2QZVP 

methanol

0 1
C  -5.171949  -1.259821   0.908200
O  -3.766472  -1.114383   0.823092
H  -5.595285  -2.319589   0.452101
H  -5.753528  -0.361033   0.353052
H  -5.413847  -1.219505   2.204602
H  -3.479851  -1.237862   0.481726
