%chk=/home/boittier/MDCM/nms_sampling/methanol_geom.xyz.dir/methanol_3342.chk
%nproc=8
%mem=16000MB
#p B2PLYPD3/Def2QZVP 

methanol

0 1
C  -5.188524  -1.248206   0.923438
O  -3.759990  -1.122762   0.884007
H  -5.594822  -2.128333   0.660646
H  -5.503393  -0.609753   0.334027
H  -5.478143  -1.200171   1.834369
H  -3.574912  -1.204834  -0.509854
