%chk=/home/boittier/MDCM/nms_sampling/methanol_geom.xyz.dir/methanol_588.chk
%nproc=8
%mem=16000MB
#p B2PLYPD3/Def2QZVP 

methanol

0 1
C  -5.174666  -1.257593   0.911991
O  -3.769406  -1.122615   0.872502
H  -5.546329  -2.159446   0.539201
H  -5.700624  -0.524557   0.385503
H  -5.464797  -1.156686   1.932691
H  -3.450434  -1.196829  -0.217390

