%chk=/home/boittier/MDCM/nms_sampling/methanol_geom.xyz.dir/methanol_2790.chk
%nproc=8
%mem=16000MB
#p B2PLYPD3/Def2QZVP 

methanol

0 1
C  -5.163215  -1.267967   0.939164
O  -3.783255  -1.121765   0.833641
H  -5.448436  -2.256915   0.495893
H  -5.562030  -0.323476   0.220413
H  -5.441171  -1.152989   1.990115
H  -3.616037  -1.197767   0.250093
