%chk=/home/boittier/MDCM/nms_sampling/methanol_geom.xyz.dir/methanol_1064.chk
%nproc=8
%mem=16000MB
#p B2PLYPD3/Def2QZVP 

methanol

0 1
C  -5.177606  -1.265213   0.910924
O  -3.766129  -1.120081   0.851769
H  -5.521105  -2.213903   0.528706
H  -5.725550  -0.418706   0.333323
H  -5.449331  -1.160017   2.033282
H  -3.480898  -1.197897   0.096235
