%chk=/home/boittier/MDCM/nms_sampling/methanol_geom.xyz.dir/methanol_688.chk
%nproc=8
%mem=16000MB
#p B2PLYPD3/Def2QZVP 

methanol

0 1
C  -5.169783  -1.256408   0.910416
O  -3.772684  -1.121485   0.858278
H  -5.474882  -2.213080   0.550996
H  -5.700110  -0.443513   0.331816
H  -5.476746  -1.192983   1.993331
H  -3.513131  -1.219673   0.015678

