%chk=/home/boittier/MDCM/nms_sampling/methanol_geom.xyz.dir/methanol_384.chk
%nproc=8
%mem=16000MB
#p B2PLYPD3/Def2QZVP 

methanol

0 1
C  -5.175077  -1.248143   0.906335
O  -3.774233  -1.125486   0.870781
H  -5.485406  -2.201307   0.570378
H  -5.656419  -0.531368   0.386238
H  -5.455515  -1.176315   1.953364
H  -3.485347  -1.189986  -0.174044
