%chk=/home/boittier/MDCM/nms_sampling/methanol_geom.xyz.dir/methanol_2355.chk
%nproc=8
%mem=16000MB
#p B2PLYPD3/Def2QZVP 

methanol

0 1
C  -5.195837  -1.253630   0.910404
O  -3.758524  -1.122617   0.848955
H  -5.424053  -2.315647   0.483844
H  -5.746427  -0.433359   0.355176
H  -5.445429  -1.138317   2.017565
H  -3.477029  -1.192915   0.188599

