%chk=/home/boittier/MDCM/nms_sampling/methanol_geom.xyz.dir/methanol_403.chk
%nproc=8
%mem=16000MB
#p B2PLYPD3/Def2QZVP 

methanol

0 1
C  -5.173781  -1.252216   0.914801
O  -3.773757  -1.120683   0.870212
H  -5.490997  -2.232863   0.569473
H  -5.665632  -0.508320   0.368915
H  -5.437479  -1.162752   1.891549
H  -3.513690  -1.221766  -0.182062

