%chk=/home/boittier/MDCM/nms_sampling/methanol_geom.xyz.dir/methanol_100.chk
%nproc=8
%mem=16000MB
#p B2PLYPD3/Def2QZVP 

methanol

0 1
C  -5.178785  -1.260027   0.912340
O  -3.764075  -1.120039   0.870141
H  -5.475031  -2.184711   0.562056
H  -5.703010  -0.476588   0.352030
H  -5.491401  -1.165085   1.914739
H  -3.527935  -1.224669  -0.152608
