%chk=/home/boittier/MDCM/nms_sampling/methanol_geom.xyz.dir/methanol_3119.chk
%nproc=8
%mem=16000MB
#p B2PLYPD3/Def2QZVP 

methanol

0 1
C  -5.183979  -1.245991   0.902202
O  -3.754517  -1.125475   0.887040
H  -5.644544  -2.166027   0.607286
H  -5.740211  -0.624472   0.442126
H  -5.538638  -1.148229   1.895443
H  -3.372121  -1.190777  -0.425344
