%chk=/home/boittier/MDCM/nms_sampling/methanol_geom.xyz.dir/methanol_1325.chk
%nproc=8
%mem=16000MB
#p B2PLYPD3/Def2QZVP 

methanol

0 1
C  -5.179675  -1.245680   0.912657
O  -3.776011  -1.125842   0.856923
H  -5.396687  -2.273033   0.520347
H  -5.698266  -0.449183   0.335482
H  -5.452107  -1.187863   1.969134
H  -3.454830  -1.210457   0.063541

