%chk=/home/boittier/MDCM/nms_sampling/methanol_geom.xyz.dir/methanol_2689.chk
%nproc=8
%mem=16000MB
#p B2PLYPD3/Def2QZVP 

methanol

0 1
C  -5.134424  -1.246643   0.919421
O  -3.785973  -1.120598   0.881942
H  -5.522384  -2.247159   0.541097
H  -5.768738  -0.560574   0.392336
H  -5.472059  -1.189150   1.792931
H  -3.608339  -1.195959  -0.323829

