%chk=/home/boittier/MDCM/nms_sampling/methanol_geom.xyz.dir/methanol_395.chk
%nproc=8
%mem=16000MB
#p B2PLYPD3/Def2QZVP 

methanol

0 1
C  -5.190935  -1.258362   0.917871
O  -3.759952  -1.117507   0.854365
H  -5.523331  -2.280338   0.543324
H  -5.699735  -0.453106   0.332533
H  -5.411009  -1.153420   1.961012
H  -3.493741  -1.218174   0.033361
