%chk=/home/boittier/MDCM/nms_sampling/methanol_geom.xyz.dir/methanol_155.chk
%nproc=8
%mem=16000MB
#p B2PLYPD3/Def2QZVP 

methanol

0 1
C  -5.184417  -1.248712   0.912017
O  -3.764997  -1.123091   0.870494
H  -5.480816  -2.235679   0.557117
H  -5.684322  -0.536121   0.368329
H  -5.457618  -1.157426   1.916544
H  -3.500873  -1.200313  -0.167614
