%chk=/home/boittier/MDCM/nms_sampling/methanol_geom.xyz.dir/methanol_1578.chk
%nproc=8
%mem=16000MB
#p B2PLYPD3/Def2QZVP 

methanol

0 1
C  -5.174355  -1.264769   0.916222
O  -3.768694  -1.120475   0.841913
H  -5.599109  -2.261656   0.503518
H  -5.678007  -0.411545   0.360153
H  -5.423086  -1.137217   2.060418
H  -3.476075  -1.177188   0.167567
