%chk=/home/boittier/MDCM/nms_sampling/methanol_geom.xyz.dir/methanol_2960.chk
%nproc=8
%mem=16000MB
#p B2PLYPD3/Def2QZVP 

methanol

0 1
C  -5.184877  -1.251456   0.929378
O  -3.760715  -1.116343   0.863813
H  -5.507776  -2.264197   0.550428
H  -5.613571  -0.535944   0.302646
H  -5.419368  -1.177589   1.879971
H  -3.647116  -1.223361  -0.153783
