%chk=/home/boittier/MDCM/nms_sampling/methanol_geom.xyz.dir/methanol_567.chk
%nproc=8
%mem=16000MB
#p B2PLYPD3/Def2QZVP 

methanol

0 1
C  -5.183732  -1.250916   0.912559
O  -3.766204  -1.124990   0.869389
H  -5.454619  -2.208695   0.575213
H  -5.687873  -0.492382   0.334900
H  -5.488855  -1.173469   1.916122
H  -3.476333  -1.203050  -0.140251
