%chk=/home/boittier/MDCM/nms_sampling/methanol_geom.xyz.dir/methanol_510.chk
%nproc=8
%mem=16000MB
#p B2PLYPD3/Def2QZVP 

methanol

0 1
C  -5.176957  -1.260022   0.907257
O  -3.766218  -1.119918   0.873991
H  -5.548711  -2.174852   0.574379
H  -5.726333  -0.520720   0.386046
H  -5.442874  -1.154242   1.930218
H  -3.469343  -1.201325  -0.217852

