%chk=/home/boittier/MDCM/nms_sampling/methanol_geom.xyz.dir/methanol_2316.chk
%nproc=8
%mem=16000MB
#p B2PLYPD3/Def2QZVP 

methanol

0 1
C  -5.187174  -1.254806   0.914811
O  -3.759224  -1.124993   0.878217
H  -5.605278  -2.142907   0.550738
H  -5.671028  -0.547699   0.418298
H  -5.467475  -1.180143   1.887716
H  -3.433034  -1.163091  -0.341870
