%chk=/home/boittier/MDCM/nms_sampling/methanol_geom.xyz.dir/methanol_125.chk
%nproc=8
%mem=16000MB
#p B2PLYPD3/Def2QZVP 

methanol

0 1
C  -5.177071  -1.256530   0.917843
O  -3.770876  -1.122818   0.869187
H  -5.521481  -2.176067   0.587721
H  -5.623759  -0.511106   0.327541
H  -5.451168  -1.162721   1.917319
H  -3.513753  -1.195953  -0.206187
