%chk=/home/boittier/MDCM/nms_sampling/methanol_geom.xyz.dir/methanol_1844.chk
%nproc=8
%mem=16000MB
#p B2PLYPD3/Def2QZVP 

methanol

0 1
C  -5.177315  -1.259246   0.908330
O  -3.766873  -1.128929   0.847121
H  -5.476344  -2.279602   0.567317
H  -5.771318  -0.345930   0.315830
H  -5.506636  -1.153304   2.012403
H  -3.410303  -1.146541   0.206755

