%chk=/home/boittier/MDCM/nms_sampling/methanol_geom.xyz.dir/methanol_923.chk
%nproc=8
%mem=16000MB
#p B2PLYPD3/Def2QZVP 

methanol

0 1
C  -5.175579  -1.249322   0.911424
O  -3.772852  -1.126413   0.856941
H  -5.466970  -2.270923   0.563211
H  -5.688942  -0.451865   0.336971
H  -5.469664  -1.166876   1.972840
H  -3.472054  -1.182899   0.030983

