%chk=/home/boittier/MDCM/nms_sampling/methanol_geom.xyz.dir/methanol_3524.chk
%nproc=8
%mem=16000MB
#p B2PLYPD3/Def2QZVP 

methanol

0 1
C  -5.162715  -1.257766   0.898288
O  -3.759562  -1.119663   0.889652
H  -5.485759  -2.050224   0.652335
H  -5.717177  -0.575141   0.326386
H  -5.585635  -1.238072   1.933528
H  -3.660087  -1.226768  -0.394326

