%chk=/home/boittier/MDCM/nms_sampling/methanol_geom.xyz.dir/methanol_3498.chk
%nproc=8
%mem=16000MB
#p B2PLYPD3/Def2QZVP 

methanol

0 1
C  -5.178144  -1.260928   0.926419
O  -3.763161  -1.118972   0.825742
H  -5.423796  -2.389350   0.541624
H  -5.637613  -0.309076   0.228936
H  -5.518489  -1.120340   2.037386
H  -3.640755  -1.238700   0.431492
