%chk=/home/boittier/MDCM/nms_sampling/methanol_geom.xyz.dir/methanol_1070.chk
%nproc=8
%mem=16000MB
#p B2PLYPD3/Def2QZVP 

methanol

0 1
C  -5.186022  -1.257149   0.920410
O  -3.762312  -1.118581   0.863103
H  -5.542671  -2.247565   0.551890
H  -5.691289  -0.489119   0.341685
H  -5.418349  -1.156678   1.909998
H  -3.494612  -1.209362  -0.106124

