%chk=/home/boittier/MDCM/nms_sampling/methanol_geom.xyz.dir/methanol_2615.chk
%nproc=8
%mem=16000MB
#p B2PLYPD3/Def2QZVP 

methanol

0 1
C  -5.152894  -1.250012   0.925851
O  -3.788094  -1.118117   0.842878
H  -5.549682  -2.308313   0.519089
H  -5.578558  -0.499538   0.299073
H  -5.361078  -1.175346   2.031186
H  -3.636444  -1.203000   0.111758
