%chk=/home/boittier/MDCM/nms_sampling/methanol_geom.xyz.dir/methanol_1079.chk
%nproc=8
%mem=16000MB
#p B2PLYPD3/Def2QZVP 

methanol

0 1
C  -5.181253  -1.262211   0.916659
O  -3.768157  -1.120323   0.866948
H  -5.551008  -2.162335   0.582484
H  -5.661381  -0.485623   0.327037
H  -5.424440  -1.168510   1.936033
H  -3.467100  -1.203124  -0.168925

