%chk=/home/boittier/MDCM/nms_sampling/methanol_geom.xyz.dir/methanol_2888.chk
%nproc=8
%mem=16000MB
#p B2PLYPD3/Def2QZVP 

methanol

0 1
C  -5.196160  -1.281187   0.927337
O  -3.743565  -1.111933   0.889146
H  -5.686311  -1.996132   0.637051
H  -5.649777  -0.560686   0.292668
H  -5.490793  -1.132985   1.821720
H  -3.489878  -1.249964  -0.565956
