%chk=/home/boittier/MDCM/nms_sampling/methanol_geom.xyz.dir/methanol_1918.chk
%nproc=8
%mem=16000MB
#p B2PLYPD3/Def2QZVP 

methanol

0 1
C  -5.186647  -1.251585   0.906887
O  -3.771372  -1.126036   0.852983
H  -5.444733  -2.312978   0.550104
H  -5.754094  -0.425560   0.345142
H  -5.400949  -1.145595   1.993448
H  -3.395463  -1.165225   0.134251

