%chk=/home/boittier/MDCM/nms_sampling/methanol_geom.xyz.dir/methanol_2347.chk
%nproc=8
%mem=16000MB
#p B2PLYPD3/Def2QZVP 

methanol

0 1
C  -5.183652  -1.247084   0.907492
O  -3.760978  -1.128247   0.855929
H  -5.489247  -2.230636   0.559064
H  -5.676722  -0.440468   0.355427
H  -5.544630  -1.218813   2.013131
H  -3.476407  -1.184869   0.038077

