%chk=/home/boittier/MDCM/nms_sampling/methanol_geom.xyz.dir/methanol_1838.chk
%nproc=8
%mem=16000MB
#p B2PLYPD3/Def2QZVP 

methanol

0 1
C  -5.187006  -1.251584   0.917162
O  -3.757245  -1.122052   0.841983
H  -5.582825  -2.301046   0.512984
H  -5.693439  -0.446762   0.332494
H  -5.495544  -1.157270   2.055061
H  -3.443824  -1.211037   0.178534

