%chk=/home/boittier/MDCM/nms_sampling/methanol_geom.xyz.dir/methanol_2386.chk
%nproc=8
%mem=16000MB
#p B2PLYPD3/Def2QZVP 

methanol

0 1
C  -5.162992  -1.261062   0.904238
O  -3.773841  -1.119089   0.884452
H  -5.492282  -2.155308   0.626616
H  -5.718959  -0.519166   0.385388
H  -5.487788  -1.145608   1.863223
H  -3.528369  -1.233415  -0.335722

