%chk=/home/boittier/MDCM/nms_sampling/methanol_geom.xyz.dir/methanol_2149.chk
%nproc=8
%mem=16000MB
#p B2PLYPD3/Def2QZVP 

methanol

0 1
C  -5.170895  -1.259026   0.908661
O  -3.769902  -1.125441   0.849378
H  -5.513855  -2.239165   0.502952
H  -5.773874  -0.430248   0.335221
H  -5.464466  -1.156364   2.059327
H  -3.442648  -1.153163   0.158693
