%chk=/home/boittier/MDCM/nms_sampling/methanol_geom.xyz.dir/methanol_371.chk
%nproc=8
%mem=16000MB
#p B2PLYPD3/Def2QZVP 

methanol

0 1
C  -5.179134  -1.252589   0.915220
O  -3.764331  -1.124035   0.854060
H  -5.527906  -2.232486   0.539052
H  -5.648412  -0.446464   0.352325
H  -5.526728  -1.179855   1.995370
H  -3.486376  -1.216440   0.018488

