%chk=/home/boittier/MDCM/nms_sampling/methanol_geom.xyz.dir/methanol_554.chk
%nproc=8
%mem=16000MB
#p B2PLYPD3/Def2QZVP 

methanol

0 1
C  -5.176733  -1.253822   0.917695
O  -3.766448  -1.122946   0.867870
H  -5.582494  -2.196252   0.549922
H  -5.690298  -0.531192   0.354432
H  -5.450043  -1.168499   1.929842
H  -3.463675  -1.179395  -0.185121

