%chk=/home/boittier/MDCM/nms_sampling/methanol_geom.xyz.dir/methanol_366.chk
%nproc=8
%mem=16000MB
#p B2PLYPD3/Def2QZVP 

methanol

0 1
C  -5.175695  -1.255681   0.913850
O  -3.769217  -1.122647   0.866779
H  -5.525826  -2.221838   0.561776
H  -5.703367  -0.485668   0.364049
H  -5.467703  -1.148920   1.919637
H  -3.457836  -1.202259  -0.130941

