%chk=/home/boittier/MDCM/nms_sampling/methanol_geom.xyz.dir/methanol_1031.chk
%nproc=8
%mem=16000MB
#p B2PLYPD3/Def2QZVP 

methanol

0 1
C  -5.171719  -1.250188   0.911295
O  -3.774178  -1.124810   0.856252
H  -5.480186  -2.265998   0.528882
H  -5.685766  -0.492150   0.347989
H  -5.462867  -1.139643   2.004067
H  -3.495389  -1.188315   0.033445
