%chk=/home/boittier/MDCM/nms_sampling/methanol_geom.xyz.dir/methanol_1201.chk
%nproc=8
%mem=16000MB
#p B2PLYPD3/Def2QZVP 

methanol

0 1
C  -5.196859  -1.264003   0.924421
O  -3.754639  -1.123477   0.850907
H  -5.528151  -2.271167   0.580444
H  -5.665428  -0.383751   0.293070
H  -5.469406  -1.126769   1.927655
H  -3.472170  -1.171531   0.050896
