%chk=/home/boittier/MDCM/nms_sampling/methanol_geom.xyz.dir/methanol_2665.chk
%nproc=8
%mem=16000MB
#p B2PLYPD3/Def2QZVP 

methanol

0 1
C  -5.180805  -1.235355   0.900880
O  -3.755992  -1.128684   0.891335
H  -5.521221  -2.186811   0.598799
H  -5.702162  -0.639804   0.446975
H  -5.582293  -1.189075   1.864449
H  -3.502123  -1.185858  -0.444963
