%chk=/home/boittier/MDCM/nms_sampling/methanol_geom.xyz.dir/methanol_3546.chk
%nproc=8
%mem=16000MB
#p B2PLYPD3/Def2QZVP 

methanol

0 1
C  -5.173620  -1.267287   0.931195
O  -3.779975  -1.112228   0.887886
H  -5.597187  -2.183817   0.567014
H  -5.594513  -0.549374   0.437720
H  -5.306713  -1.105830   1.706187
H  -3.516942  -1.238486  -0.540699
