%chk=/home/boittier/MDCM/nms_sampling/methanol_geom.xyz.dir/methanol_2038.chk
%nproc=8
%mem=16000MB
#p B2PLYPD3/Def2QZVP 

methanol

0 1
C  -5.170059  -1.258850   0.919999
O  -3.776529  -1.120551   0.843833
H  -5.488532  -2.339117   0.525179
H  -5.678883  -0.399186   0.329343
H  -5.412043  -1.116573   1.982476
H  -3.527043  -1.196154   0.182172
