%chk=/home/boittier/MDCM/nms_sampling/methanol_geom.xyz.dir/methanol_2314.chk
%nproc=8
%mem=16000MB
#p B2PLYPD3/Def2QZVP 

methanol

0 1
C  -5.174871  -1.254208   0.920279
O  -3.768983  -1.125937   0.873450
H  -5.624300  -2.157347   0.546884
H  -5.671869  -0.564379   0.367941
H  -5.457383  -1.146322   1.906757
H  -3.413570  -1.157031  -0.294991
