%chk=/home/boittier/MDCM/nms_sampling/methanol_geom.xyz.dir/methanol_2450.chk
%nproc=8
%mem=16000MB
#p B2PLYPD3/Def2QZVP 

methanol

0 1
C  -5.164011  -1.229902   0.928743
O  -3.780607  -1.130523   0.885147
H  -5.587555  -2.188244   0.535323
H  -5.525396  -0.736072   0.382828
H  -5.495448  -1.128311   1.840353
H  -3.511629  -1.174546  -0.524391
