%chk=/home/boittier/MDCM/nms_sampling/methanol_geom.xyz.dir/methanol_9.chk
%nproc=8
%mem=16000MB
#p B2PLYPD3/Def2QZVP 

methanol

0 1
C  -5.174727  -1.254035   0.907826
O  -3.771401  -1.125366   0.869897
H  -5.515237  -2.160747   0.572545
H  -5.681242  -0.490300   0.372829
H  -5.486324  -1.190746   1.954247
H  -3.443989  -1.195206  -0.167063
