%chk=/home/boittier/MDCM/nms_sampling/methanol_geom.xyz.dir/methanol_117.chk
%nproc=8
%mem=16000MB
#p B2PLYPD3/Def2QZVP 

methanol

0 1
C  -5.185239  -1.258576   0.911059
O  -3.760309  -1.122104   0.864858
H  -5.523218  -2.194351   0.544300
H  -5.722788  -0.480504   0.358745
H  -5.483316  -1.159394   1.962316
H  -3.453539  -1.201591  -0.088793
