%chk=/home/boittier/MDCM/nms_sampling/methanol_geom.xyz.dir/methanol_1546.chk
%nproc=8
%mem=16000MB
#p B2PLYPD3/Def2QZVP 

methanol

0 1
C  -5.167790  -1.259072   0.915673
O  -3.778172  -1.122797   0.877107
H  -5.532267  -2.125618   0.593905
H  -5.581950  -0.528066   0.372510
H  -5.474442  -1.147254   1.891690
H  -3.512618  -1.216296  -0.335263

