%chk=/home/boittier/MDCM/nms_sampling/methanol_geom.xyz.dir/methanol_3400.chk
%nproc=8
%mem=16000MB
#p B2PLYPD3/Def2QZVP 

methanol

0 1
C  -5.169882  -1.278117   0.900050
O  -3.767594  -1.120891   0.852783
H  -5.468215  -2.204317   0.588639
H  -5.859428  -0.244494   0.344992
H  -5.445993  -1.226417   1.988103
H  -3.456150  -1.160522   0.187644
