%chk=/home/boittier/MDCM/nms_sampling/methanol_geom.xyz.dir/methanol_1605.chk
%nproc=8
%mem=16000MB
#p B2PLYPD3/Def2QZVP 

methanol

0 1
C  -5.181974  -1.246959   0.925583
O  -3.759607  -1.122592   0.853195
H  -5.566702  -2.298078   0.512808
H  -5.675158  -0.495959   0.332453
H  -5.488372  -1.167385   1.948866
H  -3.507624  -1.198141   0.003536
