%chk=/home/boittier/MDCM/nms_sampling/methanol_geom.xyz.dir/methanol_2461.chk
%nproc=8
%mem=16000MB
#p B2PLYPD3/Def2QZVP 

methanol

0 1
C  -5.145788  -1.238036   0.891732
O  -3.787523  -1.131680   0.852358
H  -5.458524  -2.311565   0.471966
H  -5.710371  -0.497807   0.485408
H  -5.537996  -1.148558   2.102467
H  -3.507025  -1.161475   0.149249
