%chk=/home/boittier/MDCM/nms_sampling/methanol_geom.xyz.dir/methanol_3210.chk
%nproc=8
%mem=16000MB
#p B2PLYPD3/Def2QZVP 

methanol

0 1
C  -5.148888  -1.244944   0.905384
O  -3.780694  -1.130106   0.831509
H  -5.486730  -2.406895   0.480025
H  -5.799223  -0.371585   0.366172
H  -5.547360  -1.130413   2.107021
H  -3.451293  -1.159424   0.438455
