%chk=/home/boittier/MDCM/nms_sampling/methanol_geom.xyz.dir/methanol_1536.chk
%nproc=8
%mem=16000MB
#p B2PLYPD3/Def2QZVP 

methanol

0 1
C  -5.182299  -1.264337   0.928754
O  -3.764008  -1.118529   0.839099
H  -5.552901  -2.311888   0.498466
H  -5.711489  -0.399417   0.275724
H  -5.400091  -1.126421   2.000603
H  -3.496612  -1.183955   0.215615

