%chk=/home/boittier/MDCM/nms_sampling/methanol_geom.xyz.dir/methanol_235.chk
%nproc=8
%mem=16000MB
#p B2PLYPD3/Def2QZVP 

methanol

0 1
C  -5.180728  -1.256325   0.907355
O  -3.768494  -1.120135   0.851494
H  -5.502787  -2.265636   0.529045
H  -5.713031  -0.452820   0.358298
H  -5.413561  -1.165215   2.041428
H  -3.479867  -1.203728   0.110192

