%chk=/home/boittier/MDCM/nms_sampling/methanol_geom.xyz.dir/methanol_786.chk
%nproc=8
%mem=16000MB
#p B2PLYPD3/Def2QZVP 

methanol

0 1
C  -5.182266  -1.260255   0.920415
O  -3.764448  -1.120131   0.867829
H  -5.534799  -2.199421   0.543762
H  -5.699292  -0.478282   0.351042
H  -5.424753  -1.175427   1.889939
H  -3.493046  -1.191560  -0.165150

