%chk=/home/boittier/MDCM/nms_sampling/methanol_geom.xyz.dir/methanol_751.chk
%nproc=8
%mem=16000MB
#p B2PLYPD3/Def2QZVP 

methanol

0 1
C  -5.183284  -1.254575   0.916546
O  -3.768694  -1.123105   0.866417
H  -5.544196  -2.203777   0.560190
H  -5.669094  -0.516077   0.345671
H  -5.419659  -1.157143   1.935791
H  -3.442720  -1.185081  -0.154882

