%chk=/home/boittier/MDCM/nms_sampling/methanol_geom.xyz.dir/methanol_2166.chk
%nproc=8
%mem=16000MB
#p B2PLYPD3/Def2QZVP 

methanol

0 1
C  -5.187339  -1.265748   0.922021
O  -3.754322  -1.115842   0.873116
H  -5.568329  -2.163843   0.518836
H  -5.712013  -0.499650   0.378967
H  -5.465769  -1.157696   1.867175
H  -3.508165  -1.229140  -0.251531
