%chk=/home/boittier/MDCM/nms_sampling/methanol_geom.xyz.dir/methanol_1577.chk
%nproc=8
%mem=16000MB
#p B2PLYPD3/Def2QZVP 

methanol

0 1
C  -5.182355  -1.254594   0.907952
O  -3.761376  -1.117706   0.845448
H  -5.440530  -2.342399   0.497533
H  -5.751163  -0.410137   0.367462
H  -5.439124  -1.175496   2.030437
H  -3.573554  -1.217321   0.237687

