%chk=/home/boittier/MDCM/nms_sampling/methanol_geom.xyz.dir/methanol_2285.chk
%nproc=8
%mem=16000MB
#p B2PLYPD3/Def2QZVP 

methanol

0 1
C  -5.189970  -1.261335   0.925421
O  -3.754749  -1.125731   0.869609
H  -5.556357  -2.175946   0.572173
H  -5.705634  -0.460780   0.311670
H  -5.507480  -1.155527   1.855256
H  -3.441438  -1.159395  -0.207159

