%chk=/home/boittier/MDCM/nms_sampling/methanol_geom.xyz.dir/methanol_562.chk
%nproc=8
%mem=16000MB
#p B2PLYPD3/Def2QZVP 

methanol

0 1
C  -5.178715  -1.253151   0.907014
O  -3.763432  -1.122033   0.852768
H  -5.494213  -2.257391   0.522676
H  -5.717393  -0.461899   0.358007
H  -5.501256  -1.164000   2.042023
H  -3.498668  -1.214979   0.098755
