%chk=/home/boittier/MDCM/nms_sampling/methanol_geom.xyz.dir/methanol_3598.chk
%nproc=8
%mem=16000MB
#p B2PLYPD3/Def2QZVP 

methanol

0 1
C  -5.189505  -1.239683   0.920514
O  -3.757729  -1.128820   0.884373
H  -5.739056  -2.171131   0.594299
H  -5.609555  -0.660633   0.433135
H  -5.452459  -1.183937   1.846244
H  -3.379555  -1.130151  -0.525530

