%chk=/home/boittier/MDCM/nms_sampling/methanol_geom.xyz.dir/methanol_2852.chk
%nproc=8
%mem=16000MB
#p B2PLYPD3/Def2QZVP 

methanol

0 1
C  -5.177981  -1.257195   0.919404
O  -3.769997  -1.128140   0.878383
H  -5.568190  -2.189959   0.646523
H  -5.729804  -0.443954   0.342225
H  -5.437324  -1.192455   1.786717
H  -3.372910  -1.132614  -0.311077

