%chk=/home/boittier/MDCM/nms_sampling/methanol_geom.xyz.dir/methanol_2829.chk
%nproc=8
%mem=16000MB
#p B2PLYPD3/Def2QZVP 

methanol

0 1
C  -5.215238  -1.250078   0.902243
O  -3.754304  -1.124515   0.850620
H  -5.413588  -2.382059   0.483291
H  -5.763244  -0.427055   0.441917
H  -5.406094  -1.091058   1.998393
H  -3.358009  -1.187190   0.194908

