%chk=/home/boittier/MDCM/nms_sampling/methanol_geom.xyz.dir/methanol_636.chk
%nproc=8
%mem=16000MB
#p B2PLYPD3/Def2QZVP 

methanol

0 1
C  -5.180190  -1.259088   0.920286
O  -3.763080  -1.120165   0.853940
H  -5.503124  -2.238388   0.528242
H  -5.682345  -0.425395   0.321483
H  -5.496986  -1.167616   1.962566
H  -3.514777  -1.228624   0.035370
