%chk=/home/boittier/MDCM/nms_sampling/methanol_geom.xyz.dir/methanol_391.chk
%nproc=8
%mem=16000MB
#p B2PLYPD3/Def2QZVP 

methanol

0 1
C  -5.182723  -1.255069   0.909617
O  -3.769770  -1.123301   0.871050
H  -5.505025  -2.186941   0.553528
H  -5.688890  -0.529966   0.372659
H  -5.412439  -1.156847   1.944845
H  -3.458333  -1.178981  -0.179130

