%chk=/home/boittier/MDCM/nms_sampling/methanol_geom.xyz.dir/methanol_1785.chk
%nproc=8
%mem=16000MB
#p B2PLYPD3/Def2QZVP 

methanol

0 1
C  -5.187663  -1.252314   0.901979
O  -3.769130  -1.125314   0.846824
H  -5.456606  -2.290208   0.578456
H  -5.714597  -0.421952   0.315909
H  -5.436257  -1.152485   2.077157
H  -3.410143  -1.189576   0.207711

