%chk=/home/boittier/MDCM/nms_sampling/methanol_geom.xyz.dir/methanol_1907.chk
%nproc=8
%mem=16000MB
#p B2PLYPD3/Def2QZVP 

methanol

0 1
C  -5.190922  -1.266668   0.923814
O  -3.763814  -1.118864   0.872595
H  -5.557665  -2.170111   0.590081
H  -5.637917  -0.469331   0.349090
H  -5.373039  -1.166268   1.840231
H  -3.491198  -1.183668  -0.275664
