%chk=/home/boittier/MDCM/nms_sampling/methanol_geom.xyz.dir/methanol_2837.chk
%nproc=8
%mem=16000MB
#p B2PLYPD3/Def2QZVP 

methanol

0 1
C  -5.187103  -1.241059   0.915147
O  -3.772660  -1.134708   0.841423
H  -5.349491  -2.328239   0.548371
H  -5.688758  -0.366663   0.253599
H  -5.482424  -1.206759   2.020181
H  -3.441249  -1.137956   0.291272

