%chk=/home/boittier/MDCM/nms_sampling/methanol_geom.xyz.dir/methanol_1871.chk
%nproc=8
%mem=16000MB
#p B2PLYPD3/Def2QZVP 

methanol

0 1
C  -5.177756  -1.259916   0.917023
O  -3.770594  -1.119950   0.870560
H  -5.536862  -2.189113   0.560509
H  -5.593959  -0.513354   0.398114
H  -5.427461  -1.141105   1.900271
H  -3.550562  -1.205523  -0.243318

