%chk=/home/boittier/MDCM/nms_sampling/methanol_geom.xyz.dir/methanol_28.chk
%nproc=8
%mem=16000MB
#p B2PLYPD3/Def2QZVP 

methanol

0 1
C  -5.181707  -1.257365   0.921274
O  -3.765889  -1.120916   0.857451
H  -5.492847  -2.228077   0.533367
H  -5.643829  -0.453707   0.325620
H  -5.479472  -1.158568   1.947489
H  -3.520224  -1.225931  -0.028158
