%chk=/home/boittier/MDCM/nms_sampling/methanol_geom.xyz.dir/methanol_3038.chk
%nproc=8
%mem=16000MB
#p B2PLYPD3/Def2QZVP 

methanol

0 1
C  -5.170721  -1.268267   0.916397
O  -3.768822  -1.115855   0.896620
H  -5.574047  -2.096795   0.534371
H  -5.824458  -0.558622   0.422459
H  -5.340689  -1.197040   1.759624
H  -3.476598  -1.165050  -0.520756

