%chk=/home/boittier/MDCM/nms_sampling/methanol_geom.xyz.dir/methanol_1489.chk
%nproc=8
%mem=16000MB
#p B2PLYPD3/Def2QZVP 

methanol

0 1
C  -5.185977  -1.241341   0.914368
O  -3.763158  -1.125623   0.875969
H  -5.539481  -2.207034   0.586558
H  -5.584345  -0.594236   0.390966
H  -5.486038  -1.180057   1.898542
H  -3.524957  -1.194026  -0.318712
