%chk=/home/boittier/MDCM/nms_sampling/methanol_geom.xyz.dir/methanol_158.chk
%nproc=8
%mem=16000MB
#p B2PLYPD3/Def2QZVP 

methanol

0 1
C  -5.177876  -1.259313   0.909874
O  -3.769529  -1.119381   0.873578
H  -5.527891  -2.162231   0.572578
H  -5.697230  -0.534974   0.358614
H  -5.412676  -1.163437   1.937318
H  -3.486793  -1.205058  -0.221372

