%chk=/home/boittier/MDCM/nms_sampling/methanol_geom.xyz.dir/methanol_2945.chk
%nproc=8
%mem=16000MB
#p B2PLYPD3/Def2QZVP 

methanol

0 1
C  -5.182742  -1.243768   0.922448
O  -3.765398  -1.111106   0.886219
H  -5.592531  -2.227740   0.620219
H  -5.531331  -0.678640   0.398170
H  -5.394664  -1.163089   1.803436
H  -3.631144  -1.295823  -0.525177
