%chk=/home/boittier/MDCM/nms_sampling/methanol_geom.xyz.dir/methanol_2254.chk
%nproc=8
%mem=16000MB
#p B2PLYPD3/Def2QZVP 

methanol

0 1
C  -5.199674  -1.263455   0.917610
O  -3.755992  -1.120549   0.842110
H  -5.540779  -2.251213   0.576652
H  -5.633848  -0.402514   0.272760
H  -5.423098  -1.158274   2.054243
H  -3.484653  -1.190489   0.168108

