%chk=/home/boittier/MDCM/nms_sampling/methanol_geom.xyz.dir/methanol_767.chk
%nproc=8
%mem=16000MB
#p B2PLYPD3/Def2QZVP 

methanol

0 1
C  -5.173108  -1.252640   0.910068
O  -3.765545  -1.121694   0.852923
H  -5.509737  -2.260005   0.521847
H  -5.725446  -0.475241   0.340562
H  -5.486151  -1.171490   2.033190
H  -3.521913  -1.202378   0.086855
