%chk=/home/boittier/MDCM/nms_sampling/methanol_geom.xyz.dir/methanol_2641.chk
%nproc=8
%mem=16000MB
#p B2PLYPD3/Def2QZVP 

methanol

0 1
C  -5.156534  -1.260608   0.935476
O  -3.777271  -1.120333   0.826770
H  -5.555247  -2.322108   0.404248
H  -5.712145  -0.338870   0.293771
H  -5.426752  -1.201767   2.041013
H  -3.550475  -1.174963   0.372710
