%chk=/home/boittier/MDCM/nms_sampling/methanol_geom.xyz.dir/methanol_2756.chk
%nproc=8
%mem=16000MB
#p B2PLYPD3/Def2QZVP 

methanol

0 1
C  -5.161656  -1.267771   0.929250
O  -3.784756  -1.119929   0.888157
H  -5.466533  -2.113908   0.595921
H  -5.536869  -0.481956   0.382555
H  -5.441463  -1.142771   1.717324
H  -3.619678  -1.221778  -0.508398

