%chk=/home/boittier/MDCM/nms_sampling/methanol_geom.xyz.dir/methanol_1347.chk
%nproc=8
%mem=16000MB
#p B2PLYPD3/Def2QZVP 

methanol

0 1
C  -5.174914  -1.266428   0.918255
O  -3.764588  -1.119951   0.873775
H  -5.569766  -2.170534   0.588758
H  -5.719557  -0.457179   0.360916
H  -5.456637  -1.163908   1.850185
H  -3.485450  -1.188531  -0.249860

