%chk=/home/boittier/MDCM/nms_sampling/methanol_geom.xyz.dir/methanol_2350.chk
%nproc=8
%mem=16000MB
#p B2PLYPD3/Def2QZVP 

methanol

0 1
C  -5.171480  -1.241745   0.917133
O  -3.778550  -1.126727   0.840769
H  -5.492979  -2.312042   0.480507
H  -5.647652  -0.454103   0.336702
H  -5.456704  -1.188985   2.066158
H  -3.461194  -1.196483   0.214815
