%chk=/home/boittier/MDCM/nms_sampling/methanol_geom.xyz.dir/methanol_686.chk
%nproc=8
%mem=16000MB
#p B2PLYPD3/Def2QZVP 

methanol

0 1
C  -5.184021  -1.246713   0.914795
O  -3.764980  -1.124396   0.867442
H  -5.476472  -2.248866   0.551281
H  -5.681208  -0.518343   0.356652
H  -5.476451  -1.165821   1.914288
H  -3.493635  -1.200056  -0.130280

