%chk=/home/boittier/MDCM/nms_sampling/methanol_geom.xyz.dir/methanol_2154.chk
%nproc=8
%mem=16000MB
#p B2PLYPD3/Def2QZVP 

methanol

0 1
C  -5.173968  -1.255439   0.911182
O  -3.769117  -1.128135   0.846851
H  -5.482706  -2.284036   0.539562
H  -5.753069  -0.351118   0.338340
H  -5.495124  -1.191098   2.001698
H  -3.437532  -1.153797   0.193723
