%chk=/home/boittier/MDCM/nms_sampling/methanol_geom.xyz.dir/methanol_2633.chk
%nproc=8
%mem=16000MB
#p B2PLYPD3/Def2QZVP 

methanol

0 1
C  -5.173016  -1.241764   0.902950
O  -3.777038  -1.131924   0.897649
H  -5.484284  -2.181505   0.566994
H  -5.777049  -0.581467   0.486081
H  -5.412828  -1.201927   1.775649
H  -3.387070  -1.106350  -0.487942
