%chk=/home/boittier/MDCM/nms_sampling/methanol_geom.xyz.dir/methanol_344.chk
%nproc=8
%mem=16000MB
#p B2PLYPD3/Def2QZVP 

methanol

0 1
C  -5.172519  -1.256885   0.910246
O  -3.772777  -1.121108   0.851324
H  -5.473401  -2.247592   0.559293
H  -5.694164  -0.433496   0.306652
H  -5.455222  -1.171307   2.030347
H  -3.510731  -1.215967   0.111093
