%chk=/home/boittier/MDCM/nms_sampling/methanol_geom.xyz.dir/methanol_1119.chk
%nproc=8
%mem=16000MB
#p B2PLYPD3/Def2QZVP 

methanol

0 1
C  -5.179680  -1.254062   0.917224
O  -3.769973  -1.124293   0.865821
H  -5.553162  -2.211355   0.539656
H  -5.639978  -0.521700   0.379033
H  -5.440715  -1.137733   1.935088
H  -3.463543  -1.178814  -0.164681

