%chk=/home/boittier/MDCM/nms_sampling/methanol_geom.xyz.dir/methanol_1629.chk
%nproc=8
%mem=16000MB
#p B2PLYPD3/Def2QZVP 

methanol

0 1
C  -5.180334  -1.261255   0.914254
O  -3.761333  -1.119443   0.880543
H  -5.500357  -2.157665   0.589096
H  -5.677367  -0.482431   0.391159
H  -5.515382  -1.168923   1.830284
H  -3.528778  -1.238477  -0.323930
