%chk=/home/boittier/MDCM/nms_sampling/methanol_geom.xyz.dir/methanol_794.chk
%nproc=8
%mem=16000MB
#p B2PLYPD3/Def2QZVP 

methanol

0 1
C  -5.192689  -1.251693   0.916293
O  -3.761829  -1.123632   0.851425
H  -5.511932  -2.269587   0.511331
H  -5.677243  -0.466753   0.343803
H  -5.431191  -1.166981   2.006957
H  -3.455470  -1.183547   0.072625

