%chk=/home/boittier/MDCM/nms_sampling/methanol_geom.xyz.dir/methanol_850.chk
%nproc=8
%mem=16000MB
#p B2PLYPD3/Def2QZVP 

methanol

0 1
C  -5.181613  -1.260397   0.917753
O  -3.767930  -1.122550   0.852311
H  -5.498136  -2.240770   0.540703
H  -5.698897  -0.418062   0.306674
H  -5.427378  -1.167678   1.983509
H  -3.478102  -1.179377   0.072852
