%chk=/home/boittier/MDCM/nms_sampling/methanol_geom.xyz.dir/methanol_975.chk
%nproc=8
%mem=16000MB
#p B2PLYPD3/Def2QZVP 

methanol

0 1
C  -5.174246  -1.256396   0.909524
O  -3.768723  -1.120755   0.868695
H  -5.541195  -2.194823   0.562220
H  -5.722720  -0.519262   0.361004
H  -5.446575  -1.162096   1.955530
H  -3.469466  -1.203157  -0.147072
