%chk=/home/boittier/MDCM/nms_sampling/methanol_geom.xyz.dir/methanol_716.chk
%nproc=8
%mem=16000MB
#p B2PLYPD3/Def2QZVP 

methanol

0 1
C  -5.171578  -1.254637   0.909125
O  -3.771674  -1.122777   0.873199
H  -5.511738  -2.181739   0.547425
H  -5.709772  -0.529664   0.385842
H  -5.469836  -1.154361   1.931426
H  -3.472290  -1.202445  -0.201821

