%chk=/home/boittier/MDCM/nms_sampling/methanol_geom.xyz.dir/methanol_1385.chk
%nproc=8
%mem=16000MB
#p B2PLYPD3/Def2QZVP 

methanol

0 1
C  -5.166139  -1.252222   0.906278
O  -3.777124  -1.127485   0.849599
H  -5.436138  -2.288448   0.540687
H  -5.737577  -0.383063   0.349858
H  -5.521281  -1.156452   2.015507
H  -3.441832  -1.197314   0.179258

