%chk=/home/boittier/MDCM/nms_sampling/methanol_geom.xyz.dir/methanol_2853.chk
%nproc=8
%mem=16000MB
#p B2PLYPD3/Def2QZVP 

methanol

0 1
C  -5.195429  -1.258220   0.924474
O  -3.758186  -1.122484   0.844010
H  -5.477486  -2.314716   0.546210
H  -5.584746  -0.369085   0.330978
H  -5.469822  -1.150983   1.954197
H  -3.565378  -1.197189   0.133929

