%chk=/home/boittier/MDCM/nms_sampling/methanol_geom.xyz.dir/methanol_909.chk
%nproc=8
%mem=16000MB
#p B2PLYPD3/Def2QZVP 

methanol

0 1
C  -5.173962  -1.259832   0.912612
O  -3.772312  -1.121244   0.856517
H  -5.466234  -2.249986   0.566667
H  -5.704282  -0.423871   0.320329
H  -5.457464  -1.145212   1.968358
H  -3.496100  -1.213552   0.041464

