%chk=/home/boittier/MDCM/nms_sampling/methanol_geom.xyz.dir/methanol_2939.chk
%nproc=8
%mem=16000MB
#p B2PLYPD3/Def2QZVP 

methanol

0 1
C  -5.167116  -1.275231   0.896207
O  -3.767017  -1.118239   0.901314
H  -5.609599  -1.975968   0.654487
H  -5.816829  -0.583019   0.376907
H  -5.410252  -1.187873   1.884139
H  -3.442196  -1.160684  -0.563306

