%chk=/home/boittier/MDCM/nms_sampling/methanol_geom.xyz.dir/methanol_1266.chk
%nproc=8
%mem=16000MB
#p B2PLYPD3/Def2QZVP 

methanol

0 1
C  -5.182536  -1.255291   0.922993
O  -3.772451  -1.128323   0.864070
H  -5.542000  -2.157421   0.564460
H  -5.599622  -0.483901   0.316003
H  -5.444925  -1.177913   1.933378
H  -3.431139  -1.156159  -0.165317

