%chk=/home/boittier/MDCM/nms_sampling/methanol_geom.xyz.dir/methanol_1845.chk
%nproc=8
%mem=16000MB
#p B2PLYPD3/Def2QZVP 

methanol

0 1
C  -5.166340  -1.246695   0.902757
O  -3.773328  -1.126141   0.848884
H  -5.501219  -2.271604   0.562480
H  -5.722848  -0.436238   0.340053
H  -5.525520  -1.193604   2.072182
H  -3.447109  -1.208508   0.161293

