%chk=/home/boittier/MDCM/nms_sampling/methanol_geom.xyz.dir/methanol_3433.chk
%nproc=8
%mem=16000MB
#p B2PLYPD3/Def2QZVP 

methanol

0 1
C  -5.217669  -1.249345   0.927931
O  -3.747664  -1.125349   0.882461
H  -5.610621  -2.175757   0.554019
H  -5.582934  -0.687222   0.354986
H  -5.421016  -1.061695   1.848958
H  -3.404112  -1.160351  -0.470010
