%chk=/home/boittier/MDCM/nms_sampling/methanol_geom.xyz.dir/methanol_2652.chk
%nproc=8
%mem=16000MB
#p B2PLYPD3/Def2QZVP 

methanol

0 1
C  -5.168563  -1.273537   0.894325
O  -3.770120  -1.119164   0.844082
H  -5.513387  -2.224461   0.556958
H  -5.807530  -0.329587   0.358172
H  -5.461186  -1.154181   2.121192
H  -3.432617  -1.203610   0.277945

