%chk=/home/boittier/MDCM/nms_sampling/methanol_geom.xyz.dir/methanol_1982.chk
%nproc=8
%mem=16000MB
#p B2PLYPD3/Def2QZVP 

methanol

0 1
C  -5.177613  -1.246217   0.912219
O  -3.764891  -1.126158   0.883059
H  -5.448213  -2.171241   0.583880
H  -5.705903  -0.540858   0.356072
H  -5.564612  -1.179705   1.846146
H  -3.480962  -1.224452  -0.319547

