%chk=/home/boittier/MDCM/nms_sampling/methanol_geom.xyz.dir/methanol_2738.chk
%nproc=8
%mem=16000MB
#p B2PLYPD3/Def2QZVP 

methanol

0 1
C  -5.184110  -1.245166   0.933041
O  -3.755178  -1.130590   0.840216
H  -5.573587  -2.321926   0.509621
H  -5.747695  -0.386368   0.255150
H  -5.553391  -1.209346   1.960129
H  -3.399631  -1.145415   0.197957
