%chk=/home/boittier/MDCM/nms_sampling/methanol_geom.xyz.dir/methanol_1166.chk
%nproc=8
%mem=16000MB
#p B2PLYPD3/Def2QZVP 

methanol

0 1
C  -5.171176  -1.252276   0.918864
O  -3.771889  -1.126126   0.854363
H  -5.518079  -2.253283   0.523536
H  -5.678063  -0.431169   0.352137
H  -5.496827  -1.175665   1.958798
H  -3.468489  -1.185066   0.024088
