%chk=/home/boittier/MDCM/nms_sampling/methanol_geom.xyz.dir/methanol_1826.chk
%nproc=8
%mem=16000MB
#p B2PLYPD3/Def2QZVP 

methanol

0 1
C  -5.172221  -1.266550   0.904385
O  -3.766271  -1.119768   0.843937
H  -5.520657  -2.249566   0.527813
H  -5.741942  -0.380739   0.352876
H  -5.470097  -1.153023   2.090162
H  -3.503789  -1.197831   0.226759

