%chk=/home/boittier/MDCM/nms_sampling/methanol_geom.xyz.dir/methanol_1120.chk
%nproc=8
%mem=16000MB
#p B2PLYPD3/Def2QZVP 

methanol

0 1
C  -5.176359  -1.251103   0.921170
O  -3.774148  -1.124536   0.868999
H  -5.491009  -2.219841   0.536370
H  -5.645797  -0.508928   0.360980
H  -5.462113  -1.146061   1.881579
H  -3.471309  -1.204757  -0.187340
