%chk=/home/boittier/MDCM/nms_sampling/methanol_geom.xyz.dir/methanol_2103.chk
%nproc=8
%mem=16000MB
#p B2PLYPD3/Def2QZVP 

methanol

0 1
C  -5.177079  -1.257342   0.916907
O  -3.758252  -1.120377   0.838479
H  -5.573510  -2.277271   0.547364
H  -5.667480  -0.399972   0.298203
H  -5.511211  -1.196069   2.073368
H  -3.555924  -1.205864   0.220663

