%chk=/home/boittier/MDCM/nms_sampling/methanol_geom.xyz.dir/methanol_2705.chk
%nproc=8
%mem=16000MB
#p B2PLYPD3/Def2QZVP 

methanol

0 1
C  -5.173290  -1.265285   0.930790
O  -3.760938  -1.121261   0.831418
H  -5.519783  -2.232836   0.477948
H  -5.609779  -0.335478   0.258582
H  -5.579243  -1.179429   2.064798
H  -3.594107  -1.229823   0.288121
