%chk=/home/boittier/MDCM/nms_sampling/methanol_geom.xyz.dir/methanol_3139.chk
%nproc=8
%mem=16000MB
#p B2PLYPD3/Def2QZVP 

methanol

0 1
C  -5.215651  -1.266077   0.906194
O  -3.747524  -1.125058   0.839384
H  -5.365966  -2.280742   0.487605
H  -5.798948  -0.324222   0.298307
H  -5.450306  -1.139456   2.084365
H  -3.412236  -1.159681   0.379525
