%chk=/home/boittier/MDCM/nms_sampling/methanol_geom.xyz.dir/methanol_88.chk
%nproc=8
%mem=16000MB
#p B2PLYPD3/Def2QZVP 

methanol

0 1
C  -5.186410  -1.258379   0.908534
O  -3.758670  -1.123399   0.854021
H  -5.507496  -2.224651   0.560178
H  -5.738293  -0.430901   0.315844
H  -5.478356  -1.184747   2.025787
H  -3.468090  -1.179045   0.081455
