%chk=/home/boittier/MDCM/nms_sampling/methanol_geom.xyz.dir/methanol_2387.chk
%nproc=8
%mem=16000MB
#p B2PLYPD3/Def2QZVP 

methanol

0 1
C  -5.180287  -1.260377   0.923076
O  -3.759562  -1.119109   0.839275
H  -5.562744  -2.324987   0.488892
H  -5.752283  -0.403870   0.306842
H  -5.463592  -1.130470   2.020158
H  -3.477324  -1.201307   0.238705

