%chk=/home/boittier/MDCM/nms_sampling/methanol_geom.xyz.dir/methanol_2834.chk
%nproc=8
%mem=16000MB
#p B2PLYPD3/Def2QZVP 

methanol

0 1
C  -5.158853  -1.264581   0.923003
O  -3.776332  -1.119198   0.891492
H  -5.584091  -1.988733   0.597727
H  -5.608592  -0.545670   0.345080
H  -5.508334  -1.233547   1.818433
H  -3.525841  -1.246980  -0.562720
