%chk=/home/boittier/MDCM/nms_sampling/methanol_geom.xyz.dir/methanol_206.chk
%nproc=8
%mem=16000MB
#p B2PLYPD3/Def2QZVP 

methanol

0 1
C  -5.176037  -1.256093   0.918819
O  -3.764208  -1.120919   0.863822
H  -5.530069  -2.197824   0.561473
H  -5.663062  -0.482287   0.327319
H  -5.497617  -1.185788   1.933780
H  -3.536506  -1.217136  -0.119845

