%chk=/home/boittier/MDCM/nms_sampling/methanol_geom.xyz.dir/methanol_2821.chk
%nproc=8
%mem=16000MB
#p B2PLYPD3/Def2QZVP 

methanol

0 1
C  -5.139300  -1.258039   0.885853
O  -3.779723  -1.116636   0.899761
H  -5.570154  -2.086377   0.653298
H  -5.737130  -0.641800   0.475737
H  -5.494206  -1.170201   1.911227
H  -3.609405  -1.228034  -0.537288
