%chk=/home/boittier/MDCM/nms_sampling/methanol_geom.xyz.dir/methanol_1644.chk
%nproc=8
%mem=16000MB
#p B2PLYPD3/Def2QZVP 

methanol

0 1
C  -5.166734  -1.263567   0.905373
O  -3.771387  -1.116912   0.852919
H  -5.566337  -2.255508   0.549660
H  -5.739927  -0.462285   0.364776
H  -5.424660  -1.125321   2.046445
H  -3.495533  -1.212727   0.078374

