%chk=/home/boittier/MDCM/nms_sampling/methanol_geom.xyz.dir/methanol_3216.chk
%nproc=8
%mem=16000MB
#p B2PLYPD3/Def2QZVP 

methanol

0 1
C  -5.184307  -1.258713   0.918786
O  -3.775105  -1.122048   0.885248
H  -5.644220  -2.125696   0.531454
H  -5.548409  -0.636888   0.480905
H  -5.357335  -1.084032   1.859862
H  -3.417464  -1.178559  -0.519416
