%chk=/home/boittier/MDCM/nms_sampling/methanol_geom.xyz.dir/methanol_535.chk
%nproc=8
%mem=16000MB
#p B2PLYPD3/Def2QZVP 

methanol

0 1
C  -5.169742  -1.255222   0.919218
O  -3.769592  -1.120858   0.870208
H  -5.537381  -2.200363   0.528536
H  -5.678951  -0.514521   0.379008
H  -5.468464  -1.171232   1.892674
H  -3.532687  -1.205282  -0.205971

