%chk=/home/boittier/MDCM/nms_sampling/methanol_geom.xyz.dir/methanol_227.chk
%nproc=8
%mem=16000MB
#p B2PLYPD3/Def2QZVP 

methanol

0 1
C  -5.188427  -1.262996   0.907723
O  -3.761185  -1.119417   0.866241
H  -5.508390  -2.197094   0.588538
H  -5.703333  -0.479284   0.346781
H  -5.439399  -1.140487   1.961923
H  -3.481956  -1.208006  -0.103038
