%chk=/home/boittier/MDCM/nms_sampling/methanol_geom.xyz.dir/methanol_2974.chk
%nproc=8
%mem=16000MB
#p B2PLYPD3/Def2QZVP 

methanol

0 1
C  -5.194210  -1.275667   0.904649
O  -3.759774  -1.114358   0.835190
H  -5.463738  -2.383808   0.540262
H  -5.820909  -0.364511   0.302448
H  -5.299078  -1.046271   2.088906
H  -3.509961  -1.157614   0.408256

