%chk=/home/boittier/MDCM/nms_sampling/methanol_geom.xyz.dir/methanol_2666.chk
%nproc=8
%mem=16000MB
#p B2PLYPD3/Def2QZVP 

methanol

0 1
C  -5.177715  -1.278550   0.923833
O  -3.768255  -1.112016   0.889886
H  -5.698199  -2.015437   0.517577
H  -5.661478  -0.610242   0.417780
H  -5.340519  -1.119440   1.847203
H  -3.445819  -1.212829  -0.569133

