%chk=/home/boittier/MDCM/nms_sampling/methanol_geom.xyz.dir/methanol_1476.chk
%nproc=8
%mem=16000MB
#p B2PLYPD3/Def2QZVP 

methanol

0 1
C  -5.171404  -1.257207   0.913783
O  -3.775736  -1.121278   0.877861
H  -5.554334  -2.189114   0.585307
H  -5.628952  -0.571677   0.395967
H  -5.406409  -1.111153   1.883239
H  -3.514865  -1.186218  -0.330757
