%chk=/home/boittier/MDCM/nms_sampling/methanol_geom.xyz.dir/methanol_2231.chk
%nproc=8
%mem=16000MB
#p B2PLYPD3/Def2QZVP 

methanol

0 1
C  -5.191289  -1.249418   0.917721
O  -3.761662  -1.124434   0.844093
H  -5.489370  -2.350302   0.490439
H  -5.705466  -0.409728   0.365511
H  -5.459087  -1.149477   1.990929
H  -3.442576  -1.191209   0.194630
