%chk=/home/boittier/MDCM/nms_sampling/methanol_geom.xyz.dir/methanol_3170.chk
%nproc=8
%mem=16000MB
#p B2PLYPD3/Def2QZVP 

methanol

0 1
C  -5.173139  -1.242836   0.896805
O  -3.763978  -1.130229   0.885927
H  -5.536076  -2.137002   0.554032
H  -5.646783  -0.608375   0.501523
H  -5.585242  -1.172502   1.936509
H  -3.497175  -1.174102  -0.391979

