%chk=/home/boittier/MDCM/nms_sampling/methanol_geom.xyz.dir/methanol_1340.chk
%nproc=8
%mem=16000MB
#p B2PLYPD3/Def2QZVP 

methanol

0 1
C  -5.175430  -1.261123   0.914537
O  -3.771894  -1.125448   0.879323
H  -5.503954  -2.127691   0.564097
H  -5.719241  -0.490620   0.363520
H  -5.482457  -1.149313   1.863313
H  -3.403930  -1.187503  -0.290958

