%chk=/home/boittier/MDCM/nms_sampling/methanol_geom.xyz.dir/methanol_1287.chk
%nproc=8
%mem=16000MB
#p B2PLYPD3/Def2QZVP 

methanol

0 1
C  -5.172330  -1.261329   0.924905
O  -3.767437  -1.117937   0.876092
H  -5.611133  -2.199938   0.576888
H  -5.714144  -0.510569   0.361600
H  -5.414470  -1.159481   1.812185
H  -3.482806  -1.196329  -0.316723

