%chk=/home/boittier/MDCM/nms_sampling/methanol_geom.xyz.dir/methanol_1967.chk
%nproc=8
%mem=16000MB
#p B2PLYPD3/Def2QZVP 

methanol

0 1
C  -5.178130  -1.256856   0.902783
O  -3.775495  -1.121168   0.845169
H  -5.432019  -2.264036   0.565192
H  -5.680044  -0.403763   0.313741
H  -5.416528  -1.179517   2.092322
H  -3.496859  -1.218041   0.224643
