%chk=/home/boittier/MDCM/nms_sampling/methanol_geom.xyz.dir/methanol_2583.chk
%nproc=8
%mem=16000MB
#p B2PLYPD3/Def2QZVP 

methanol

0 1
C  -5.168400  -1.275195   0.923086
O  -3.769655  -1.114013   0.828360
H  -5.688697  -2.249572   0.569256
H  -5.689678  -0.328656   0.247930
H  -5.399424  -1.173682   2.107083
H  -3.448967  -1.219266   0.308003
