%chk=/home/boittier/MDCM/nms_sampling/methanol_geom.xyz.dir/methanol_1716.chk
%nproc=8
%mem=16000MB
#p B2PLYPD3/Def2QZVP 

methanol

0 1
C  -5.198837  -1.253305   0.904602
O  -3.759944  -1.124667   0.853567
H  -5.426337  -2.293045   0.588229
H  -5.717720  -0.425947   0.320089
H  -5.465911  -1.132417   2.008581
H  -3.424179  -1.202599   0.122952
