%chk=/home/boittier/MDCM/nms_sampling/methanol_geom.xyz.dir/methanol_780.chk
%nproc=8
%mem=16000MB
#p B2PLYPD3/Def2QZVP 

methanol

0 1
C  -5.171550  -1.251358   0.911170
O  -3.771004  -1.124816   0.868886
H  -5.516627  -2.197748   0.547561
H  -5.682422  -0.533719   0.368979
H  -5.483830  -1.155983   1.952442
H  -3.491418  -1.187225  -0.160141
