%chk=/home/boittier/MDCM/nms_sampling/methanol_geom.xyz.dir/methanol_3247.chk
%nproc=8
%mem=16000MB
#p B2PLYPD3/Def2QZVP 

methanol

0 1
C  -5.211497  -1.250986   0.932977
O  -3.758102  -1.125921   0.836606
H  -5.490066  -2.378308   0.449299
H  -5.690763  -0.388170   0.311124
H  -5.334444  -1.160875   1.963052
H  -3.402711  -1.127726   0.260268
