%chk=/home/boittier/MDCM/nms_sampling/methanol_geom.xyz.dir/methanol_895.chk
%nproc=8
%mem=16000MB
#p B2PLYPD3/Def2QZVP 

methanol

0 1
C  -5.181234  -1.264661   0.911418
O  -3.762091  -1.120459   0.873085
H  -5.508365  -2.163690   0.569688
H  -5.735298  -0.467866   0.362433
H  -5.465499  -1.164361   1.899496
H  -3.488937  -1.196167  -0.192169

