%chk=/home/boittier/MDCM/nms_sampling/methanol_geom.xyz.dir/methanol_2999.chk
%nproc=8
%mem=16000MB
#p B2PLYPD3/Def2QZVP 

methanol

0 1
C  -5.191128  -1.257654   0.895335
O  -3.755501  -1.114228   0.904253
H  -5.433415  -2.107987   0.706417
H  -5.700592  -0.563724   0.411776
H  -5.485984  -1.208006   1.779903
H  -3.572971  -1.287994  -0.575355

