%chk=/home/boittier/MDCM/nms_sampling/methanol_geom.xyz.dir/methanol_3238.chk
%nproc=8
%mem=16000MB
#p B2PLYPD3/Def2QZVP 

methanol

0 1
C  -5.165916  -1.261734   0.910036
O  -3.769962  -1.116353   0.840964
H  -5.524970  -2.377894   0.499641
H  -5.833090  -0.364335   0.374553
H  -5.439093  -1.118575   2.015351
H  -3.463879  -1.224656   0.295034

