%chk=/home/boittier/MDCM/nms_sampling/methanol_geom.xyz.dir/methanol_3461.chk
%nproc=8
%mem=16000MB
#p B2PLYPD3/Def2QZVP 

methanol

0 1
C  -5.183365  -1.239488   0.914253
O  -3.772554  -1.129019   0.821602
H  -5.468246  -2.349164   0.568909
H  -5.527203  -0.379336   0.250653
H  -5.524741  -1.193970   2.180328
H  -3.492203  -1.222933   0.446296

