%chk=/home/boittier/MDCM/nms_sampling/methanol_geom.xyz.dir/methanol_261.chk
%nproc=8
%mem=16000MB
#p B2PLYPD3/Def2QZVP 

methanol

0 1
C  -5.170544  -1.251334   0.919967
O  -3.772318  -1.125149   0.854260
H  -5.507172  -2.248883   0.545220
H  -5.690494  -0.435719   0.306430
H  -5.497021  -1.187114   1.961215
H  -3.467764  -1.199766   0.033380
