%chk=/home/boittier/MDCM/nms_sampling/methanol_geom.xyz.dir/methanol_1286.chk
%nproc=8
%mem=16000MB
#p B2PLYPD3/Def2QZVP 

methanol

0 1
C  -5.184321  -1.262443   0.911445
O  -3.769176  -1.123265   0.879878
H  -5.478675  -2.161626   0.616554
H  -5.723386  -0.506519   0.327680
H  -5.397794  -1.140440   1.863051
H  -3.452129  -1.161852  -0.279206

