%chk=/home/boittier/MDCM/nms_sampling/methanol_geom.xyz.dir/methanol_1224.chk
%nproc=8
%mem=16000MB
#p B2PLYPD3/Def2QZVP 

methanol

0 1
C  -5.171405  -1.255926   0.910459
O  -3.777948  -1.124106   0.853141
H  -5.418400  -2.277503   0.598911
H  -5.685480  -0.394935   0.296568
H  -5.435539  -1.171995   1.977255
H  -3.522978  -1.187682   0.105994

