%chk=/home/boittier/MDCM/nms_sampling/methanol_geom.xyz.dir/methanol_348.chk
%nproc=8
%mem=16000MB
#p B2PLYPD3/Def2QZVP 

methanol

0 1
C  -5.192598  -1.254281   0.911522
O  -3.761019  -1.124410   0.852994
H  -5.470049  -2.261324   0.549138
H  -5.701881  -0.423857   0.329912
H  -5.466783  -1.170014   1.997523
H  -3.447650  -1.192643   0.090134
