%chk=/home/boittier/MDCM/nms_sampling/methanol_geom.xyz.dir/methanol_3241.chk
%nproc=8
%mem=16000MB
#p B2PLYPD3/Def2QZVP 

methanol

0 1
C  -5.200814  -1.263766   0.894299
O  -3.756766  -1.123149   0.836245
H  -5.320012  -2.302679   0.581394
H  -5.663749  -0.321781   0.307973
H  -5.485580  -1.135895   2.144883
H  -3.584169  -1.199238   0.409247

