%chk=/home/boittier/MDCM/nms_sampling/methanol_geom.xyz.dir/methanol_2003.chk
%nproc=8
%mem=16000MB
#p B2PLYPD3/Def2QZVP 

methanol

0 1
C  -5.183898  -1.251452   0.916137
O  -3.771356  -1.127546   0.841034
H  -5.569290  -2.309878   0.535153
H  -5.654788  -0.451409   0.324763
H  -5.401128  -1.128395   2.064201
H  -3.402137  -1.138185   0.182905
