%chk=/home/boittier/MDCM/nms_sampling/methanol_geom.xyz.dir/methanol_1402.chk
%nproc=8
%mem=16000MB
#p B2PLYPD3/Def2QZVP 

methanol

0 1
C  -5.178359  -1.242818   0.903261
O  -3.772304  -1.129393   0.850155
H  -5.428347  -2.265819   0.553509
H  -5.669168  -0.473849   0.318631
H  -5.491159  -1.186137   2.084157
H  -3.484994  -1.175329   0.150731
