%chk=/home/boittier/MDCM/nms_sampling/methanol_geom.xyz.dir/methanol_3150.chk
%nproc=8
%mem=16000MB
#p B2PLYPD3/Def2QZVP 

methanol

0 1
C  -5.194225  -1.257049   0.928566
O  -3.753841  -1.128261   0.835832
H  -5.516416  -2.304652   0.529443
H  -5.710566  -0.350911   0.230707
H  -5.558352  -1.127335   2.008963
H  -3.392543  -1.179742   0.277266
