%chk=/home/boittier/MDCM/nms_sampling/methanol_geom.xyz.dir/methanol_566.chk
%nproc=8
%mem=16000MB
#p B2PLYPD3/Def2QZVP 

methanol

0 1
C  -5.181582  -1.254381   0.911176
O  -3.768238  -1.124841   0.874763
H  -5.503669  -2.204485   0.568446
H  -5.717892  -0.529616   0.370048
H  -5.439658  -1.133992   1.896795
H  -3.441383  -1.170085  -0.220702
