%chk=/home/boittier/MDCM/nms_sampling/methanol_geom.xyz.dir/methanol_2872.chk
%nproc=8
%mem=16000MB
#p B2PLYPD3/Def2QZVP 

methanol

0 1
C  -5.148406  -1.262438   0.888968
O  -3.776946  -1.118158   0.900994
H  -5.517593  -2.018894   0.725069
H  -5.700178  -0.553774   0.400084
H  -5.539922  -1.230313   1.876204
H  -3.581870  -1.254381  -0.554052
