%chk=/home/boittier/MDCM/nms_sampling/methanol_geom.xyz.dir/methanol_3278.chk
%nproc=8
%mem=16000MB
#p B2PLYPD3/Def2QZVP 

methanol

0 1
C  -5.173221  -1.276216   0.912556
O  -3.767327  -1.122584   0.891227
H  -5.553562  -2.059842   0.582635
H  -5.788423  -0.482941   0.389950
H  -5.415521  -1.159090   1.801270
H  -3.443198  -1.126278  -0.444237

