%chk=/home/boittier/MDCM/nms_sampling/methanol_geom.xyz.dir/methanol_3476.chk
%nproc=8
%mem=16000MB
#p B2PLYPD3/Def2QZVP 

methanol

0 1
C  -5.167519  -1.276963   0.928662
O  -3.766025  -1.117087   0.891340
H  -5.659916  -2.119366   0.537069
H  -5.782809  -0.542663   0.405733
H  -5.384179  -1.097041   1.725448
H  -3.470019  -1.142462  -0.528728
