%chk=/home/boittier/MDCM/nms_sampling/methanol_geom.xyz.dir/methanol_181.chk
%nproc=8
%mem=16000MB
#p B2PLYPD3/Def2QZVP 

methanol

0 1
C  -5.177764  -1.248685   0.913650
O  -3.764952  -1.125103   0.864880
H  -5.534546  -2.204889   0.534538
H  -5.676004  -0.516413   0.368633
H  -5.500823  -1.190636   1.962250
H  -3.485585  -1.190217  -0.120139

