%chk=/home/boittier/MDCM/nms_sampling/methanol_geom.xyz.dir/methanol_2228.chk
%nproc=8
%mem=16000MB
#p B2PLYPD3/Def2QZVP 

methanol

0 1
C  -5.183513  -1.257494   0.907900
O  -3.770911  -1.125895   0.875504
H  -5.448861  -2.138837   0.589883
H  -5.678724  -0.500952   0.340839
H  -5.436993  -1.177615   1.925905
H  -3.466649  -1.169920  -0.217454

