%chk=/home/boittier/MDCM/nms_sampling/methanol_geom.xyz.dir/methanol_444.chk
%nproc=8
%mem=16000MB
#p B2PLYPD3/Def2QZVP 

methanol

0 1
C  -5.183663  -1.254009   0.913785
O  -3.769096  -1.126168   0.862944
H  -5.515232  -2.199857   0.579178
H  -5.637822  -0.481197   0.338148
H  -5.451724  -1.168383   1.960862
H  -3.456085  -1.173614  -0.101588
