%chk=/home/boittier/MDCM/nms_sampling/methanol_geom.xyz.dir/methanol_2889.chk
%nproc=8
%mem=16000MB
#p B2PLYPD3/Def2QZVP 

methanol

0 1
C  -5.173925  -1.248310   0.898155
O  -3.763212  -1.131972   0.859540
H  -5.362933  -2.245398   0.551104
H  -5.735530  -0.383299   0.388462
H  -5.641249  -1.194721   1.990397
H  -3.520139  -1.183603   0.088919
