%chk=/home/boittier/MDCM/nms_sampling/methanol_geom.xyz.dir/methanol_2068.chk
%nproc=8
%mem=16000MB
#p B2PLYPD3/Def2QZVP 

methanol

0 1
C  -5.186922  -1.252633   0.913829
O  -3.760402  -1.127434   0.841906
H  -5.544985  -2.249182   0.525986
H  -5.681797  -0.407569   0.315973
H  -5.497869  -1.202195   2.078525
H  -3.433221  -1.164022   0.198022

