%chk=/home/boittier/MDCM/nms_sampling/methanol_geom.xyz.dir/methanol_3577.chk
%nproc=8
%mem=16000MB
#p B2PLYPD3/Def2QZVP 

methanol

0 1
C  -5.189102  -1.275522   0.900641
O  -3.765315  -1.109307   0.831732
H  -5.468414  -2.332082   0.488164
H  -5.835350  -0.421999   0.280999
H  -5.291512  -1.047832   2.198623
H  -3.474837  -1.228042   0.468538

