%chk=/home/boittier/MDCM/nms_sampling/methanol_geom.xyz.dir/methanol_2503.chk
%nproc=8
%mem=16000MB
#p B2PLYPD3/Def2QZVP 

methanol

0 1
C  -5.169909  -1.260437   0.923190
O  -3.766635  -1.117034   0.880657
H  -5.674260  -2.124512   0.489128
H  -5.732780  -0.577705   0.425130
H  -5.398088  -1.198143   1.856983
H  -3.458032  -1.189452  -0.396868

