%chk=/home/boittier/MDCM/nms_sampling/methanol_geom.xyz.dir/methanol_2900.chk
%nproc=8
%mem=16000MB
#p B2PLYPD3/Def2QZVP 

methanol

0 1
C  -5.204801  -1.273867   0.898832
O  -3.749350  -1.110414   0.897829
H  -5.483069  -2.133528   0.628136
H  -5.765767  -0.552829   0.441784
H  -5.385522  -1.099221   1.802079
H  -3.501068  -1.251486  -0.486301

