%chk=/home/boittier/MDCM/nms_sampling/methanol_geom.xyz.dir/methanol_2151.chk
%nproc=8
%mem=16000MB
#p B2PLYPD3/Def2QZVP 

methanol

0 1
C  -5.165201  -1.248676   0.909089
O  -3.774955  -1.127243   0.878540
H  -5.525072  -2.133765   0.583849
H  -5.636967  -0.531126   0.399500
H  -5.511350  -1.221496   1.907634
H  -3.506161  -1.183677  -0.314076
