%chk=/home/boittier/MDCM/nms_sampling/methanol_geom.xyz.dir/methanol_642.chk
%nproc=8
%mem=16000MB
#p B2PLYPD3/Def2QZVP 

methanol

0 1
C  -5.178185  -1.259417   0.912839
O  -3.762835  -1.120141   0.864768
H  -5.494474  -2.210484   0.566962
H  -5.697752  -0.449097   0.353007
H  -5.503262  -1.172280   1.928934
H  -3.528112  -1.225451  -0.089420
