%chk=/home/boittier/MDCM/nms_sampling/methanol_geom.xyz.dir/methanol_1920.chk
%nproc=8
%mem=16000MB
#p B2PLYPD3/Def2QZVP 

methanol

0 1
C  -5.193014  -1.254450   0.926908
O  -3.754098  -1.123622   0.866709
H  -5.587792  -2.232218   0.522183
H  -5.689091  -0.516587   0.358545
H  -5.478877  -1.132343   1.871801
H  -3.438998  -1.177542  -0.190931

