%chk=/home/boittier/MDCM/nms_sampling/methanol_geom.xyz.dir/methanol_943.chk
%nproc=8
%mem=16000MB
#p B2PLYPD3/Def2QZVP 

methanol

0 1
C  -5.179435  -1.253529   0.912195
O  -3.765115  -1.123197   0.856126
H  -5.466181  -2.256205   0.534208
H  -5.700076  -0.435056   0.351456
H  -5.509502  -1.168758   1.976191
H  -3.498841  -1.216286   0.045950
