%chk=/home/boittier/MDCM/nms_sampling/methanol_geom.xyz.dir/methanol_930.chk
%nproc=8
%mem=16000MB
#p B2PLYPD3/Def2QZVP 

methanol

0 1
C  -5.171642  -1.250613   0.912082
O  -3.771597  -1.125361   0.853540
H  -5.468837  -2.245437   0.526110
H  -5.707573  -0.435614   0.333190
H  -5.503211  -1.194167   2.006189
H  -3.481144  -1.201020   0.084250
