%chk=/home/boittier/MDCM/nms_sampling/methanol_geom.xyz.dir/methanol_2691.chk
%nproc=8
%mem=16000MB
#p B2PLYPD3/Def2QZVP 

methanol

0 1
C  -5.193756  -1.246757   0.911368
O  -3.768226  -1.131096   0.831860
H  -5.285343  -2.359085   0.503612
H  -5.711337  -0.305537   0.265963
H  -5.521661  -1.169112   2.073850
H  -3.438130  -1.196936   0.470806
