%chk=/home/boittier/MDCM/nms_sampling/methanol_geom.xyz.dir/methanol_1294.chk
%nproc=8
%mem=16000MB
#p B2PLYPD3/Def2QZVP 

methanol

0 1
C  -5.181888  -1.263896   0.905198
O  -3.764308  -1.121124   0.876259
H  -5.564960  -2.100569   0.598655
H  -5.703113  -0.492183   0.380445
H  -5.449521  -1.201510   1.942657
H  -3.435900  -1.196434  -0.262609

