%chk=/home/boittier/MDCM/nms_sampling/methanol_geom.xyz.dir/methanol_1501.chk
%nproc=8
%mem=16000MB
#p B2PLYPD3/Def2QZVP 

methanol

0 1
C  -5.163359  -1.245048   0.902643
O  -3.774489  -1.126073   0.844709
H  -5.475607  -2.309446   0.499040
H  -5.733853  -0.448980   0.372448
H  -5.498556  -1.184953   2.097421
H  -3.506778  -1.183964   0.235825

