%chk=/home/boittier/MDCM/nms_sampling/methanol_geom.xyz.dir/methanol_1882.chk
%nproc=8
%mem=16000MB
#p B2PLYPD3/Def2QZVP 

methanol

0 1
C  -5.195148  -1.252051   0.908163
O  -3.757670  -1.125189   0.879319
H  -5.506662  -2.111155   0.569392
H  -5.678675  -0.544465   0.371724
H  -5.493432  -1.208102   1.928030
H  -3.428952  -1.199379  -0.296824

