%chk=/home/boittier/MDCM/nms_sampling/methanol_geom.xyz.dir/methanol_1966.chk
%nproc=8
%mem=16000MB
#p B2PLYPD3/Def2QZVP 

methanol

0 1
C  -5.198839  -1.263527   0.903595
O  -3.754767  -1.119524   0.853338
H  -5.488761  -2.224137   0.593476
H  -5.694346  -0.426637   0.319802
H  -5.424807  -1.171883   2.049617
H  -3.503332  -1.195018   0.090316
