%chk=/home/boittier/MDCM/nms_sampling/methanol_geom.xyz.dir/methanol_422.chk
%nproc=8
%mem=16000MB
#p B2PLYPD3/Def2QZVP 

methanol

0 1
C  -5.179454  -1.252924   0.915314
O  -3.764612  -1.124154   0.864008
H  -5.539778  -2.202271   0.575256
H  -5.640527  -0.488899   0.348882
H  -5.523707  -1.163569   1.946718
H  -3.478112  -1.214779  -0.129212

