%chk=/home/boittier/MDCM/nms_sampling/methanol_geom.xyz.dir/methanol_2321.chk
%nproc=8
%mem=16000MB
#p B2PLYPD3/Def2QZVP 

methanol

0 1
C  -5.173900  -1.259455   0.907088
O  -3.770325  -1.126020   0.848662
H  -5.526832  -2.221689   0.548539
H  -5.753852  -0.423417   0.303562
H  -5.480175  -1.150019   2.076693
H  -3.392042  -1.171029   0.157455

