%chk=/home/boittier/MDCM/nms_sampling/methanol_geom.xyz.dir/methanol_1585.chk
%nproc=8
%mem=16000MB
#p B2PLYPD3/Def2QZVP 

methanol

0 1
C  -5.194503  -1.267598   0.906977
O  -3.758313  -1.117022   0.848514
H  -5.434135  -2.274069   0.555515
H  -5.732025  -0.353791   0.334777
H  -5.440192  -1.147715   2.013559
H  -3.500086  -1.233735   0.191414

