%chk=/home/boittier/MDCM/nms_sampling/methanol_geom.xyz.dir/methanol_3056.chk
%nproc=8
%mem=16000MB
#p B2PLYPD3/Def2QZVP 

methanol

0 1
C  -5.178810  -1.236865   0.901777
O  -3.759848  -1.129234   0.892707
H  -5.392032  -2.185981   0.591007
H  -5.724269  -0.524662   0.452220
H  -5.594048  -1.268481   1.792027
H  -3.551457  -1.198043  -0.399074
