%chk=/home/boittier/MDCM/nms_sampling/methanol_geom.xyz.dir/methanol_258.chk
%nproc=8
%mem=16000MB
#p B2PLYPD3/Def2QZVP 

methanol

0 1
C  -5.184512  -1.256499   0.913199
O  -3.762574  -1.125331   0.874134
H  -5.510817  -2.165130   0.566682
H  -5.714860  -0.483576   0.365825
H  -5.478049  -1.189311   1.889402
H  -3.448151  -1.172232  -0.220616

