%chk=/home/boittier/MDCM/nms_sampling/methanol_geom.xyz.dir/methanol_1080.chk
%nproc=8
%mem=16000MB
#p B2PLYPD3/Def2QZVP 

methanol

0 1
C  -5.190470  -1.252211   0.920052
O  -3.762671  -1.123035   0.849464
H  -5.516691  -2.282174   0.498696
H  -5.664979  -0.463866   0.340837
H  -5.449927  -1.144811   1.998600
H  -3.458028  -1.199412   0.084635
