%chk=/home/boittier/MDCM/nms_sampling/methanol_geom.xyz.dir/methanol_1925.chk
%nproc=8
%mem=16000MB
#p B2PLYPD3/Def2QZVP 

methanol

0 1
C  -5.177219  -1.250893   0.915442
O  -3.761815  -1.127734   0.866661
H  -5.547183  -2.187135   0.582425
H  -5.646480  -0.497145   0.345500
H  -5.574092  -1.166474   1.935758
H  -3.481666  -1.189800  -0.167159

