%chk=/home/boittier/MDCM/nms_sampling/methanol_geom.xyz.dir/methanol_2141.chk
%nproc=8
%mem=16000MB
#p B2PLYPD3/Def2QZVP 

methanol

0 1
C  -5.179796  -1.247036   0.927298
O  -3.760620  -1.124340   0.866986
H  -5.569911  -2.245284   0.514478
H  -5.659840  -0.555285   0.356120
H  -5.513629  -1.139902   1.881498
H  -3.503668  -1.191719  -0.200715
