%chk=/home/boittier/MDCM/nms_sampling/methanol_geom.xyz.dir/methanol_1660.chk
%nproc=8
%mem=16000MB
#p B2PLYPD3/Def2QZVP 

methanol

0 1
C  -5.175224  -1.252911   0.924917
O  -3.769761  -1.126763   0.842940
H  -5.548027  -2.287619   0.518125
H  -5.693958  -0.351469   0.323920
H  -5.493279  -1.208490   1.969096
H  -3.410324  -1.181901   0.164783

