%chk=/home/boittier/MDCM/nms_sampling/methanol_geom.xyz.dir/methanol_2557.chk
%nproc=8
%mem=16000MB
#p B2PLYPD3/Def2QZVP 

methanol

0 1
C  -5.176382  -1.250458   0.922948
O  -3.760303  -1.132026   0.885577
H  -5.517323  -2.099793   0.573316
H  -5.584365  -0.494349   0.407252
H  -5.664157  -1.198809   1.781944
H  -3.509544  -1.190369  -0.460813
