%chk=/home/boittier/MDCM/nms_sampling/methanol_geom.xyz.dir/methanol_2578.chk
%nproc=8
%mem=16000MB
#p B2PLYPD3/Def2QZVP 

methanol

0 1
C  -5.201102  -1.262090   0.921054
O  -3.745739  -1.125772   0.826658
H  -5.654935  -2.271211   0.517603
H  -5.659519  -0.352787   0.295669
H  -5.553458  -1.136603   2.132462
H  -3.357671  -1.183865   0.337537
