%chk=/home/boittier/MDCM/nms_sampling/methanol_geom.xyz.dir/methanol_1658.chk
%nproc=8
%mem=16000MB
#p B2PLYPD3/Def2QZVP 

methanol

0 1
C  -5.159396  -1.249424   0.917801
O  -3.777109  -1.128822   0.847343
H  -5.527951  -2.235389   0.533332
H  -5.653957  -0.447152   0.296914
H  -5.547338  -1.173944   2.042791
H  -3.484462  -1.182147   0.108982
