%chk=/home/boittier/MDCM/nms_sampling/methanol_geom.xyz.dir/methanol_870.chk
%nproc=8
%mem=16000MB
#p B2PLYPD3/Def2QZVP 

methanol

0 1
C  -5.171205  -1.253735   0.914513
O  -3.771165  -1.120331   0.867616
H  -5.519157  -2.236560   0.561653
H  -5.700800  -0.491946   0.369348
H  -5.454419  -1.169349   1.904845
H  -3.503202  -1.217793  -0.142148

