%chk=/home/boittier/MDCM/nms_sampling/methanol_geom.xyz.dir/methanol_3289.chk
%nproc=8
%mem=16000MB
#p B2PLYPD3/Def2QZVP 

methanol

0 1
C  -5.202945  -1.254285   0.920921
O  -3.769623  -1.133112   0.881790
H  -5.466015  -2.162225   0.636636
H  -5.602618  -0.455818   0.355558
H  -5.395496  -1.178541   1.771008
H  -3.359419  -1.114191  -0.372855
