%chk=/home/boittier/MDCM/nms_sampling/methanol_geom.xyz.dir/methanol_1544.chk
%nproc=8
%mem=16000MB
#p B2PLYPD3/Def2QZVP 

methanol

0 1
C  -5.188019  -1.261749   0.905961
O  -3.770637  -1.124033   0.872923
H  -5.513230  -2.158452   0.619464
H  -5.654394  -0.510563   0.355441
H  -5.416995  -1.110988   1.946852
H  -3.403293  -1.185778  -0.216270

