%chk=/home/boittier/MDCM/nms_sampling/methanol_geom.xyz.dir/methanol_1930.chk
%nproc=8
%mem=16000MB
#p B2PLYPD3/Def2QZVP 

methanol

0 1
C  -5.188384  -1.266147   0.916840
O  -3.754924  -1.119287   0.852603
H  -5.561905  -2.204812   0.521285
H  -5.699523  -0.433072   0.333961
H  -5.465301  -1.162374   2.010229
H  -3.502196  -1.193363   0.042785
