%chk=/home/boittier/MDCM/nms_sampling/methanol_geom.xyz.dir/methanol_1557.chk
%nproc=8
%mem=16000MB
#p B2PLYPD3/Def2QZVP 

methanol

0 1
C  -5.177522  -1.244092   0.926347
O  -3.775682  -1.128459   0.873313
H  -5.511730  -2.199267   0.533117
H  -5.596351  -0.552042   0.362217
H  -5.456553  -1.172681   1.853338
H  -3.467170  -1.174530  -0.289339
