%chk=/home/boittier/MDCM/nms_sampling/methanol_geom.xyz.dir/methanol_3411.chk
%nproc=8
%mem=16000MB
#p B2PLYPD3/Def2QZVP 

methanol

0 1
C  -5.175558  -1.254677   0.914984
O  -3.769171  -1.133954   0.884180
H  -5.513027  -2.119831   0.573464
H  -5.781275  -0.445093   0.380883
H  -5.500126  -1.234716   1.799954
H  -3.347978  -1.101760  -0.336129

