%chk=/home/boittier/MDCM/nms_sampling/methanol_geom.xyz.dir/methanol_1928.chk
%nproc=8
%mem=16000MB
#p B2PLYPD3/Def2QZVP 

methanol

0 1
C  -5.177494  -1.270405   0.923109
O  -3.766353  -1.118668   0.838833
H  -5.577962  -2.236530   0.499800
H  -5.689492  -0.374655   0.296179
H  -5.436035  -1.142069   2.053192
H  -3.470629  -1.199703   0.210308
