%chk=/home/boittier/MDCM/nms_sampling/methanol_geom.xyz.dir/methanol_3192.chk
%nproc=8
%mem=16000MB
#p B2PLYPD3/Def2QZVP 

methanol

0 1
C  -5.155938  -1.274225   0.906143
O  -3.777250  -1.121128   0.890377
H  -5.481735  -2.048229   0.627438
H  -5.811406  -0.476975   0.322481
H  -5.509712  -1.140864   1.844415
H  -3.442744  -1.210319  -0.377401
