%chk=/home/boittier/MDCM/nms_sampling/methanol_geom.xyz.dir/methanol_359.chk
%nproc=8
%mem=16000MB
#p B2PLYPD3/Def2QZVP 

methanol

0 1
C  -5.183815  -1.260715   0.912295
O  -3.766796  -1.120889   0.852765
H  -5.509526  -2.231476   0.555109
H  -5.698639  -0.451335   0.304845
H  -5.407326  -1.158680   2.026246
H  -3.481654  -1.185349   0.072689
