%chk=/home/boittier/MDCM/nms_sampling/methanol_geom.xyz.dir/methanol_2804.chk
%nproc=8
%mem=16000MB
#p B2PLYPD3/Def2QZVP 

methanol

0 1
C  -5.211354  -1.251917   0.905584
O  -3.754875  -1.129733   0.892848
H  -5.510630  -2.013770   0.623117
H  -5.639795  -0.611496   0.345232
H  -5.470861  -1.201166   1.909552
H  -3.340312  -1.167804  -0.499326

