%chk=/home/boittier/MDCM/nms_sampling/methanol_geom.xyz.dir/methanol_2224.chk
%nproc=8
%mem=16000MB
#p B2PLYPD3/Def2QZVP 

methanol

0 1
C  -5.179199  -1.255725   0.923791
O  -3.762637  -1.120134   0.850617
H  -5.500056  -2.284033   0.512776
H  -5.645244  -0.429863   0.337828
H  -5.492674  -1.163731   1.952022
H  -3.579720  -1.219968   0.059551
