%chk=/home/boittier/MDCM/nms_sampling/methanol_geom.xyz.dir/methanol_1185.chk
%nproc=8
%mem=16000MB
#p B2PLYPD3/Def2QZVP 

methanol

0 1
C  -5.183381  -1.252431   0.915215
O  -3.769172  -1.122743   0.849296
H  -5.528077  -2.278565   0.523391
H  -5.662598  -0.450741   0.354046
H  -5.423210  -1.165724   2.014791
H  -3.454086  -1.196375   0.091168

