%chk=/home/boittier/MDCM/nms_sampling/methanol_geom.xyz.dir/methanol_2936.chk
%nproc=8
%mem=16000MB
#p B2PLYPD3/Def2QZVP 

methanol

0 1
C  -5.179571  -1.235521   0.927398
O  -3.756575  -1.129149   0.885140
H  -5.594013  -2.216114   0.512405
H  -5.603374  -0.604630   0.474080
H  -5.590247  -1.188932   1.760327
H  -3.524644  -1.182068  -0.489330
