%chk=/home/boittier/MDCM/nms_sampling/methanol_geom.xyz.dir/methanol_3064.chk
%nproc=8
%mem=16000MB
#p B2PLYPD3/Def2QZVP 

methanol

0 1
C  -5.194386  -1.261088   0.931309
O  -3.752315  -1.117370   0.831417
H  -5.566260  -2.253578   0.476300
H  -5.604395  -0.399710   0.257177
H  -5.435871  -1.222765   2.084347
H  -3.594133  -1.203393   0.264107
