%chk=/home/boittier/MDCM/nms_sampling/methanol_geom.xyz.dir/methanol_704.chk
%nproc=8
%mem=16000MB
#p B2PLYPD3/Def2QZVP 

methanol

0 1
C  -5.188262  -1.252553   0.912734
O  -3.762453  -1.122610   0.866662
H  -5.506332  -2.236163   0.546875
H  -5.695859  -0.488595   0.385084
H  -5.456878  -1.166191   1.919675
H  -3.458153  -1.203033  -0.121657

