%chk=/home/boittier/MDCM/nms_sampling/methanol_geom.xyz.dir/methanol_1448.chk
%nproc=8
%mem=16000MB
#p B2PLYPD3/Def2QZVP 

methanol

0 1
C  -5.170523  -1.263424   0.917533
O  -3.764555  -1.117811   0.847708
H  -5.548235  -2.220295   0.531802
H  -5.642491  -0.396939   0.340003
H  -5.532772  -1.178394   2.019322
H  -3.559901  -1.253448   0.090732

