%chk=/home/boittier/MDCM/nms_sampling/methanol_geom.xyz.dir/methanol_2577.chk
%nproc=8
%mem=16000MB
#p B2PLYPD3/Def2QZVP 

methanol

0 1
C  -5.212555  -1.267635   0.899709
O  -3.743443  -1.126746   0.842968
H  -5.402684  -2.305415   0.600070
H  -5.802951  -0.295158   0.294902
H  -5.497206  -1.122281   2.048566
H  -3.422736  -1.141480   0.329201
