%chk=/home/boittier/MDCM/nms_sampling/methanol_geom.xyz.dir/methanol_263.chk
%nproc=8
%mem=16000MB
#p B2PLYPD3/Def2QZVP 

methanol

0 1
C  -5.180651  -1.253223   0.917175
O  -3.762268  -1.122145   0.867878
H  -5.586999  -2.208829   0.549833
H  -5.670559  -0.527727   0.379537
H  -5.486392  -1.153476   1.921723
H  -3.464882  -1.205309  -0.194690
