%chk=/home/boittier/MDCM/nms_sampling/methanol_geom.xyz.dir/methanol_564.chk
%nproc=8
%mem=16000MB
#p B2PLYPD3/Def2QZVP 

methanol

0 1
C  -5.171233  -1.255287   0.913050
O  -3.772188  -1.121386   0.851504
H  -5.483536  -2.280265   0.547596
H  -5.722847  -0.415708   0.325796
H  -5.457976  -1.174916   1.989312
H  -3.494256  -1.211555   0.111077
