%chk=/home/boittier/MDCM/nms_sampling/methanol_geom.xyz.dir/methanol_2508.chk
%nproc=8
%mem=16000MB
#p B2PLYPD3/Def2QZVP 

methanol

0 1
C  -5.169882  -1.255822   0.892460
O  -3.760560  -1.124217   0.896420
H  -5.460602  -2.044360   0.660363
H  -5.686650  -0.554495   0.407779
H  -5.615049  -1.219943   1.890041
H  -3.586231  -1.223099  -0.478564
