%chk=/home/boittier/MDCM/nms_sampling/methanol_geom.xyz.dir/methanol_2170.chk
%nproc=8
%mem=16000MB
#p B2PLYPD3/Def2QZVP 

methanol

0 1
C  -5.178171  -1.261868   0.922243
O  -3.769480  -1.117022   0.878190
H  -5.592791  -2.209531   0.592936
H  -5.684061  -0.528086   0.375380
H  -5.369417  -1.133370   1.808885
H  -3.479198  -1.199937  -0.345513
