%chk=/home/boittier/MDCM/nms_sampling/methanol_geom.xyz.dir/methanol_527.chk
%nproc=8
%mem=16000MB
#p B2PLYPD3/Def2QZVP 

methanol

0 1
C  -5.171292  -1.252635   0.908220
O  -3.772408  -1.124644   0.856788
H  -5.490977  -2.224251   0.565532
H  -5.710312  -0.452125   0.323616
H  -5.490563  -1.185170   2.014194
H  -3.460406  -1.202707   0.038457
