%chk=/home/boittier/MDCM/nms_sampling/methanol_geom.xyz.dir/methanol_2194.chk
%nproc=8
%mem=16000MB
#p B2PLYPD3/Def2QZVP 

methanol

0 1
C  -5.176715  -1.256999   0.923018
O  -3.766693  -1.128416   0.865505
H  -5.582868  -2.151935   0.540619
H  -5.649267  -0.490462   0.337636
H  -5.512750  -1.160216   1.927798
H  -3.430754  -1.155758  -0.181555
