%chk=/home/boittier/MDCM/nms_sampling/methanol_geom.xyz.dir/methanol_3201.chk
%nproc=8
%mem=16000MB
#p B2PLYPD3/Def2QZVP 

methanol

0 1
C  -5.193591  -1.281972   0.897953
O  -3.739372  -1.116701   0.836446
H  -5.531438  -2.193751   0.554400
H  -5.844536  -0.353388   0.246129
H  -5.506282  -1.139973   2.204846
H  -3.525192  -1.172655   0.384643

