%chk=/home/boittier/MDCM/nms_sampling/methanol_geom.xyz.dir/methanol_103.chk
%nproc=8
%mem=16000MB
#p B2PLYPD3/Def2QZVP 

methanol

0 1
C  -5.177490  -1.251649   0.921201
O  -3.765090  -1.124832   0.866952
H  -5.529699  -2.202451   0.560325
H  -5.658604  -0.488098   0.338194
H  -5.511888  -1.186445   1.896294
H  -3.495823  -1.196645  -0.170229
