%chk=/home/boittier/MDCM/nms_sampling/methanol_geom.xyz.dir/methanol_871.chk
%nproc=8
%mem=16000MB
#p B2PLYPD3/Def2QZVP 

methanol

0 1
C  -5.176626  -1.261368   0.913137
O  -3.765070  -1.119504   0.852098
H  -5.550769  -2.241468   0.534229
H  -5.699781  -0.433299   0.354150
H  -5.459743  -1.160196   2.010710
H  -3.497439  -1.208061   0.062786
