%chk=/home/boittier/MDCM/nms_sampling/methanol_geom.xyz.dir/methanol_3540.chk
%nproc=8
%mem=16000MB
#p B2PLYPD3/Def2QZVP 

methanol

0 1
C  -5.203824  -1.268010   0.916031
O  -3.748671  -1.112130   0.837101
H  -5.542707  -2.394070   0.520549
H  -5.749139  -0.413624   0.326303
H  -5.342644  -1.068205   2.037162
H  -3.528182  -1.199000   0.291481

