%chk=/home/boittier/MDCM/nms_sampling/methanol_geom.xyz.dir/methanol_42.chk
%nproc=8
%mem=16000MB
#p B2PLYPD3/Def2QZVP 

methanol

0 1
C  -5.169097  -1.260457   0.918481
O  -3.770671  -1.120235   0.848250
H  -5.533844  -2.279558   0.541624
H  -5.708424  -0.397489   0.323799
H  -5.469648  -1.152629   1.981610
H  -3.494609  -1.212679   0.116685

