%chk=/home/boittier/MDCM/nms_sampling/methanol_geom.xyz.dir/methanol_141.chk
%nproc=8
%mem=16000MB
#p B2PLYPD3/Def2QZVP 

methanol

0 1
C  -5.174691  -1.248350   0.908554
O  -3.768287  -1.123900   0.872539
H  -5.510421  -2.218839   0.564250
H  -5.692453  -0.537141   0.393882
H  -5.499935  -1.156968   1.922235
H  -3.480631  -1.210252  -0.198297

