%chk=/home/boittier/MDCM/nms_sampling/methanol_geom.xyz.dir/methanol_2623.chk
%nproc=8
%mem=16000MB
#p B2PLYPD3/Def2QZVP 

methanol

0 1
C  -5.164794  -1.229906   0.922917
O  -3.767613  -1.124955   0.852128
H  -5.541486  -2.344796   0.472734
H  -5.677245  -0.461221   0.415665
H  -5.580434  -1.264528   1.925379
H  -3.511833  -1.249237   0.036375
