%chk=/home/boittier/MDCM/nms_sampling/methanol_geom.xyz.dir/methanol_3021.chk
%nproc=8
%mem=16000MB
#p B2PLYPD3/Def2QZVP 

methanol

0 1
C  -5.187223  -1.248192   0.905906
O  -3.767357  -1.119105   0.848689
H  -5.309803  -2.335969   0.590181
H  -5.723575  -0.400790   0.257303
H  -5.451417  -1.198115   2.014232
H  -3.568527  -1.261708   0.242077
