%chk=/home/boittier/MDCM/nms_sampling/methanol_geom.xyz.dir/methanol_210.chk
%nproc=8
%mem=16000MB
#p B2PLYPD3/Def2QZVP 

methanol

0 1
C  -5.183858  -1.258859   0.910248
O  -3.760785  -1.119195   0.871203
H  -5.519573  -2.216337   0.561034
H  -5.741239  -0.489426   0.386322
H  -5.453346  -1.158156   1.903426
H  -3.479969  -1.211862  -0.165665

