%chk=/home/boittier/MDCM/nms_sampling/methanol_geom.xyz.dir/methanol_1158.chk
%nproc=8
%mem=16000MB
#p B2PLYPD3/Def2QZVP 

methanol

0 1
C  -5.189174  -1.256377   0.911905
O  -3.761712  -1.122033   0.859361
H  -5.482089  -2.224155   0.558008
H  -5.712734  -0.456650   0.320077
H  -5.456628  -1.175198   1.978785
H  -3.464026  -1.204612  -0.000172

