%chk=/home/boittier/MDCM/nms_sampling/methanol_geom.xyz.dir/methanol_2590.chk
%nproc=8
%mem=16000MB
#p B2PLYPD3/Def2QZVP 

methanol

0 1
C  -5.169698  -1.241114   0.916604
O  -3.780385  -1.130852   0.862228
H  -5.610375  -2.229657   0.580186
H  -5.608679  -0.573164   0.342150
H  -5.408226  -1.171692   1.983610
H  -3.422077  -1.120343  -0.152319

