%chk=/home/boittier/MDCM/nms_sampling/methanol_geom.xyz.dir/methanol_1217.chk
%nproc=8
%mem=16000MB
#p B2PLYPD3/Def2QZVP 

methanol

0 1
C  -5.175644  -1.249485   0.921859
O  -3.774972  -1.129047   0.844973
H  -5.491842  -2.257356   0.495156
H  -5.613353  -0.443838   0.314705
H  -5.491994  -1.153225   2.031910
H  -3.464330  -1.175752   0.131604
