%chk=/home/boittier/MDCM/nms_sampling/methanol_geom.xyz.dir/methanol_2635.chk
%nproc=8
%mem=16000MB
#p B2PLYPD3/Def2QZVP 

methanol

0 1
C  -5.179689  -1.233769   0.900610
O  -3.755377  -1.122100   0.845115
H  -5.446813  -2.440833   0.511027
H  -5.870200  -0.420391   0.388135
H  -5.555148  -1.211498   2.021160
H  -3.464673  -1.246894   0.307598
