%chk=/home/boittier/MDCM/nms_sampling/methanol_geom.xyz.dir/methanol_1910.chk
%nproc=8
%mem=16000MB
#p B2PLYPD3/Def2QZVP 

methanol

0 1
C  -5.159007  -1.257353   0.923289
O  -3.775407  -1.118923   0.839914
H  -5.528898  -2.309030   0.451719
H  -5.697595  -0.403822   0.348073
H  -5.475934  -1.157412   2.021446
H  -3.548572  -1.226207   0.220144
