%chk=/home/boittier/MDCM/nms_sampling/methanol_geom.xyz.dir/methanol_355.chk
%nproc=8
%mem=16000MB
#p B2PLYPD3/Def2QZVP 

methanol

0 1
C  -5.176708  -1.246703   0.912156
O  -3.772852  -1.125879   0.868477
H  -5.459247  -2.234838   0.538602
H  -5.688836  -0.516854   0.370379
H  -5.455008  -1.172736   1.924798
H  -3.483509  -1.184627  -0.128305

