%chk=/home/boittier/MDCM/nms_sampling/methanol_geom.xyz.dir/methanol_2284.chk
%nproc=8
%mem=16000MB
#p B2PLYPD3/Def2QZVP 

methanol

0 1
C  -5.194028  -1.267404   0.904643
O  -3.758810  -1.117275   0.846426
H  -5.475863  -2.200801   0.542331
H  -5.728686  -0.392742   0.300688
H  -5.419542  -1.192664   2.102816
H  -3.477324  -1.222028   0.205075

