%chk=/home/boittier/MDCM/nms_sampling/methanol_geom.xyz.dir/methanol_142.chk
%nproc=8
%mem=16000MB
#p B2PLYPD3/Def2QZVP 

methanol

0 1
C  -5.170939  -1.254158   0.918000
O  -3.773131  -1.119793   0.851779
H  -5.494457  -2.279516   0.514667
H  -5.692403  -0.443657   0.337227
H  -5.440892  -1.173467   1.979618
H  -3.521686  -1.221415   0.078569
