%chk=/home/boittier/MDCM/nms_sampling/methanol_geom.xyz.dir/methanol_2050.chk
%nproc=8
%mem=16000MB
#p B2PLYPD3/Def2QZVP 

methanol

0 1
C  -5.199545  -1.251005   0.922306
O  -3.756976  -1.124279   0.867289
H  -5.572422  -2.171884   0.547181
H  -5.621009  -0.542210   0.336682
H  -5.461176  -1.175102   1.932015
H  -3.417603  -1.197520  -0.212860

