%chk=/home/boittier/MDCM/nms_sampling/methanol_geom.xyz.dir/methanol_1373.chk
%nproc=8
%mem=16000MB
#p B2PLYPD3/Def2QZVP 

methanol

0 1
C  -5.183827  -1.255734   0.913330
O  -3.772166  -1.128039   0.870723
H  -5.503011  -2.143180   0.591744
H  -5.654159  -0.510775   0.313685
H  -5.426314  -1.171449   1.943924
H  -3.424528  -1.148783  -0.196839
