%chk=/home/boittier/MDCM/nms_sampling/methanol_geom.xyz.dir/methanol_940.chk
%nproc=8
%mem=16000MB
#p B2PLYPD3/Def2QZVP 

methanol

0 1
C  -5.181412  -1.251798   0.915439
O  -3.769776  -1.125501   0.870367
H  -5.496821  -2.214624   0.547675
H  -5.696506  -0.503414   0.367417
H  -5.433943  -1.170013   1.896235
H  -3.451489  -1.169150  -0.174651
