%chk=/home/boittier/MDCM/nms_sampling/methanol_geom.xyz.dir/methanol_10.chk
%nproc=8
%mem=16000MB
#p B2PLYPD3/Def2QZVP 

methanol

0 1
C  -5.179862  -1.251035   0.916670
O  -3.763687  -1.123729   0.852027
H  -5.515613  -2.268155   0.544619
H  -5.681264  -0.428910   0.334666
H  -5.510125  -1.189749   1.979555
H  -3.485062  -1.210523   0.063781
