%chk=/home/boittier/MDCM/nms_sampling/methanol_geom.xyz.dir/methanol_1004.chk
%nproc=8
%mem=16000MB
#p B2PLYPD3/Def2QZVP 

methanol

0 1
C  -5.181496  -1.250800   0.915163
O  -3.767249  -1.122339   0.870333
H  -5.524288  -2.220098   0.556265
H  -5.629852  -0.541999   0.387694
H  -5.463029  -1.143327   1.911454
H  -3.504837  -1.211638  -0.215010

