%chk=/home/boittier/MDCM/nms_sampling/methanol_geom.xyz.dir/methanol_608.chk
%nproc=8
%mem=16000MB
#p B2PLYPD3/Def2QZVP 

methanol

0 1
C  -5.184393  -1.260226   0.920214
O  -3.760086  -1.120020   0.864028
H  -5.548159  -2.197578   0.548329
H  -5.684399  -0.469318   0.340430
H  -5.457851  -1.180821   1.918978
H  -3.504892  -1.200957  -0.124166
