%chk=/home/boittier/MDCM/nms_sampling/methanol_geom.xyz.dir/methanol_1534.chk
%nproc=8
%mem=16000MB
#p B2PLYPD3/Def2QZVP 

methanol

0 1
C  -5.178501  -1.257189   0.904855
O  -3.771064  -1.118185   0.882492
H  -5.494874  -2.167052   0.583887
H  -5.650017  -0.568815   0.424622
H  -5.430899  -1.131795   1.895537
H  -3.521206  -1.238856  -0.341259

