%chk=/home/boittier/MDCM/nms_sampling/methanol_geom.xyz.dir/methanol_934.chk
%nproc=8
%mem=16000MB
#p B2PLYPD3/Def2QZVP 

methanol

0 1
C  -5.174227  -1.251791   0.920339
O  -3.773164  -1.125293   0.851240
H  -5.477743  -2.271675   0.535509
H  -5.658584  -0.435583   0.308866
H  -5.478938  -1.159335   1.973337
H  -3.492588  -1.195380   0.073669
