%chk=/home/boittier/MDCM/nms_sampling/methanol_geom.xyz.dir/methanol_2215.chk
%nproc=8
%mem=16000MB
#p B2PLYPD3/Def2QZVP 

methanol

0 1
C  -5.178117  -1.263630   0.926791
O  -3.770720  -1.125496   0.864075
H  -5.539957  -2.165486   0.531065
H  -5.674027  -0.426889   0.329771
H  -5.467920  -1.158105   1.884403
H  -3.412968  -1.175289  -0.139553
