%chk=/home/boittier/MDCM/nms_sampling/methanol_geom.xyz.dir/methanol_2686.chk
%nproc=8
%mem=16000MB
#p B2PLYPD3/Def2QZVP 

methanol

0 1
C  -5.172481  -1.279609   0.910450
O  -3.763413  -1.123129   0.882473
H  -5.602495  -2.017461   0.631106
H  -5.756084  -0.508534   0.293094
H  -5.467849  -1.128101   1.921815
H  -3.443052  -1.130907  -0.353895
