%chk=/home/boittier/MDCM/nms_sampling/methanol_geom.xyz.dir/methanol_342.chk
%nproc=8
%mem=16000MB
#p B2PLYPD3/Def2QZVP 

methanol

0 1
C  -5.177940  -1.258004   0.919932
O  -3.768188  -1.125012   0.854655
H  -5.541745  -2.242854   0.531832
H  -5.682099  -0.417819   0.351810
H  -5.465404  -1.164346   1.948969
H  -3.451219  -1.171600   0.009187
