%chk=/home/boittier/MDCM/nms_sampling/methanol_geom.xyz.dir/methanol_906.chk
%nproc=8
%mem=16000MB
#p B2PLYPD3/Def2QZVP 

methanol

0 1
C  -5.176591  -1.257113   0.914981
O  -3.764938  -1.119530   0.868545
H  -5.530298  -2.186780   0.566857
H  -5.663392  -0.516729   0.347002
H  -5.484558  -1.160645   1.934021
H  -3.533654  -1.227246  -0.177706
