%chk=/home/boittier/MDCM/nms_sampling/methanol_geom.xyz.dir/methanol_1704.chk
%nproc=8
%mem=16000MB
#p B2PLYPD3/Def2QZVP 

methanol

0 1
C  -5.162396  -1.244764   0.925198
O  -3.777862  -1.124373   0.841611
H  -5.525687  -2.332283   0.480126
H  -5.707963  -0.435543   0.308769
H  -5.481817  -1.177915   2.003694
H  -3.459905  -1.210056   0.198417

