%chk=/home/boittier/MDCM/nms_sampling/methanol_geom.xyz.dir/methanol_659.chk
%nproc=8
%mem=16000MB
#p B2PLYPD3/Def2QZVP 

methanol

0 1
C  -5.169177  -1.246528   0.921298
O  -3.773443  -1.124954   0.868994
H  -5.539380  -2.227275   0.545140
H  -5.669096  -0.525764   0.358479
H  -5.478893  -1.178492   1.885061
H  -3.477456  -1.195603  -0.198571
