%chk=/home/boittier/MDCM/nms_sampling/methanol_geom.xyz.dir/methanol_3008.chk
%nproc=8
%mem=16000MB
#p B2PLYPD3/Def2QZVP 

methanol

0 1
C  -5.212621  -1.249345   0.923966
O  -3.750551  -1.127133   0.889730
H  -5.613174  -2.128641   0.521578
H  -5.594665  -0.671342   0.434605
H  -5.442032  -1.102482   1.819664
H  -3.377398  -1.156181  -0.558998
