%chk=/home/boittier/MDCM/nms_sampling/methanol_geom.xyz.dir/methanol_2651.chk
%nproc=8
%mem=16000MB
#p B2PLYPD3/Def2QZVP 

methanol

0 1
C  -5.184687  -1.269141   0.900961
O  -3.768606  -1.119717   0.836856
H  -5.422448  -2.400994   0.551330
H  -5.814118  -0.336531   0.332801
H  -5.341494  -1.059367   2.066377
H  -3.484203  -1.147958   0.408153

