%chk=/home/boittier/MDCM/nms_sampling/methanol_geom.xyz.dir/methanol_242.chk
%nproc=8
%mem=16000MB
#p B2PLYPD3/Def2QZVP 

methanol

0 1
C  -5.176842  -1.248498   0.913199
O  -3.774051  -1.124146   0.858623
H  -5.475965  -2.273450   0.533668
H  -5.679161  -0.470170   0.368221
H  -5.446565  -1.166601   1.958232
H  -3.465480  -1.204456  -0.004464
