%chk=/home/boittier/MDCM/nms_sampling/methanol_geom.xyz.dir/methanol_2592.chk
%nproc=8
%mem=16000MB
#p B2PLYPD3/Def2QZVP 

methanol

0 1
C  -5.193584  -1.247099   0.892874
O  -3.749777  -1.125436   0.831312
H  -5.538098  -2.364874   0.524555
H  -5.785147  -0.440027   0.353866
H  -5.542368  -1.118425   2.221173
H  -3.394581  -1.193462   0.438266
