%chk=/home/boittier/MDCM/nms_sampling/cyanomethane_geom.xyz.dir/cyanomethane_934.chk
%nproc=8
%mem=16000MB
#p B2PLYPD3/Def2QZVP 

cyanomethane

0 1
C  -6.602933  -1.115937   1.157731
C  -5.201483  -0.789095   0.926227
N  -4.090565  -0.539002   0.692881
H  -6.745123  -1.207663   2.228279
H  -6.845159  -2.055277   0.690144
H  -7.251080  -0.311383   0.786117

