%chk=/home/boittier/MDCM/nms_sampling/cyanomethane_geom.xyz.dir/cyanomethane_2898.chk
%nproc=8
%mem=16000MB
#p B2PLYPD3/Def2QZVP 

cyanomethane

0 1
C  -6.601982  -1.108931   1.166332
C  -5.210355  -0.752200   0.900648
N  -4.098120  -0.562546   0.701916
H  -6.589186  -1.301273   2.267052
H  -6.744384  -2.116074   0.673088
H  -7.305856  -0.353310   0.819287

