%chk=/home/boittier/MDCM/nms_sampling/cyanomethane_geom.xyz.dir/cyanomethane_292.chk
%nproc=8
%mem=16000MB
#p B2PLYPD3/Def2QZVP 

cyanomethane

0 1
C  -6.588541  -1.117960   1.173169
C  -5.203737  -0.776047   0.901994
N  -4.096274  -0.545658   0.703661
H  -6.751857  -1.231273   2.251718
H  -6.881008  -2.077882   0.645219
H  -7.274716  -0.306175   0.762808

