%chk=/home/boittier/MDCM/nms_sampling/cyanomethane_geom.xyz.dir/cyanomethane_56.chk
%nproc=8
%mem=16000MB
#p B2PLYPD3/Def2QZVP 

cyanomethane

0 1
C  -6.600775  -1.117786   1.164886
C  -5.199465  -0.809145   0.907884
N  -4.089441  -0.526622   0.702870
H  -6.790462  -1.181453   2.248643
H  -6.900754  -2.010268   0.676883
H  -7.216921  -0.299632   0.782762
