%chk=/home/boittier/MDCM/nms_sampling/cyanomethane_geom.xyz.dir/cyanomethane_2366.chk
%nproc=8
%mem=16000MB
#p B2PLYPD3/Def2QZVP 

cyanomethane

0 1
C  -6.600468  -1.110518   1.180737
C  -5.197241  -0.799772   0.869112
N  -4.088699  -0.531932   0.721446
H  -6.796398  -1.254027   2.290311
H  -6.928127  -2.038597   0.631502
H  -7.224076  -0.323967   0.797359

