%chk=/home/boittier/MDCM/nms_sampling/cyanomethane_geom.xyz.dir/cyanomethane_463.chk
%nproc=8
%mem=16000MB
#p B2PLYPD3/Def2QZVP 

cyanomethane

0 1
C  -6.602823  -1.118434   1.169543
C  -5.198462  -0.776905   0.907861
N  -4.091709  -0.544426   0.702518
H  -6.782924  -1.229303   2.222807
H  -6.855304  -2.075231   0.658012
H  -7.224180  -0.309413   0.768885

