%chk=/home/boittier/MDCM/nms_sampling/cyanomethane_geom.xyz.dir/cyanomethane_1469.chk
%nproc=8
%mem=16000MB
#p B2PLYPD3/Def2QZVP 

cyanomethane

0 1
C  -6.598669  -1.098558   1.167722
C  -5.197460  -0.796523   0.921490
N  -4.089851  -0.537253   0.695223
H  -6.791301  -1.278043   2.252001
H  -6.857314  -2.074396   0.605358
H  -7.304908  -0.354548   0.758925

