%chk=/home/boittier/MDCM/nms_sampling/cyanomethane_geom.xyz.dir/cyanomethane_10.chk
%nproc=8
%mem=16000MB
#p B2PLYPD3/Def2QZVP 

cyanomethane

0 1
C  -6.596942  -1.119325   1.166745
C  -5.201361  -0.787674   0.895089
N  -4.091096  -0.538000   0.710192
H  -6.817765  -1.211034   2.250280
H  -6.880902  -2.053090   0.686602
H  -7.208289  -0.307437   0.792739

