%chk=/home/boittier/MDCM/nms_sampling/cyanomethane_geom.xyz.dir/cyanomethane_2886.chk
%nproc=8
%mem=16000MB
#p B2PLYPD3/Def2QZVP 

cyanomethane

0 1
C  -6.594768  -1.119434   1.154750
C  -5.203699  -0.835100   0.899682
N  -4.108383  -0.509961   0.708395
H  -6.738263  -1.164456   2.183424
H  -6.870484  -1.898566   0.764784
H  -7.054395  -0.333057   0.890721

