%chk=/home/boittier/MDCM/nms_sampling/cyanomethane_geom.xyz.dir/cyanomethane_833.chk
%nproc=8
%mem=16000MB
#p B2PLYPD3/Def2QZVP 

cyanomethane

0 1
C  -6.593290  -1.113156   1.174255
C  -5.203288  -0.810664   0.902210
N  -4.098494  -0.526360   0.704085
H  -6.730117  -1.195252   2.258543
H  -6.890418  -2.050781   0.643816
H  -7.205178  -0.285088   0.750391

