%chk=/home/boittier/MDCM/nms_sampling/cyanomethane_geom.xyz.dir/cyanomethane_1532.chk
%nproc=8
%mem=16000MB
#p B2PLYPD3/Def2QZVP 

cyanomethane

0 1
C  -6.600345  -1.130239   1.159605
C  -5.199970  -0.752809   0.916223
N  -4.086320  -0.556257   0.699213
H  -6.826553  -1.237417   2.238425
H  -6.863788  -2.058252   0.665508
H  -7.258599  -0.297355   0.801902
