%chk=/home/boittier/MDCM/nms_sampling/cyanomethane_geom.xyz.dir/cyanomethane_1164.chk
%nproc=8
%mem=16000MB
#p B2PLYPD3/Def2QZVP 

cyanomethane

0 1
C  -6.596499  -1.119524   1.165147
C  -5.200990  -0.787266   0.897838
N  -4.090024  -0.539532   0.708658
H  -6.822817  -1.189056   2.231643
H  -6.863502  -2.037807   0.712143
H  -7.245797  -0.330162   0.789081

