%chk=/home/boittier/MDCM/nms_sampling/cyanomethane_geom.xyz.dir/cyanomethane_1702.chk
%nproc=8
%mem=16000MB
#p B2PLYPD3/Def2QZVP 

cyanomethane

0 1
C  -6.598359  -1.123230   1.161674
C  -5.195859  -0.765822   0.915471
N  -4.088526  -0.548279   0.698418
H  -6.818988  -1.259119   2.213540
H  -6.928486  -2.036344   0.664689
H  -7.243896  -0.331761   0.820238

