%chk=/home/boittier/MDCM/nms_sampling/cyanomethane_geom.xyz.dir/cyanomethane_1926.chk
%nproc=8
%mem=16000MB
#p B2PLYPD3/Def2QZVP 

cyanomethane

0 1
C  -6.601863  -1.117452   1.182735
C  -5.195799  -0.769878   0.900031
N  -4.091217  -0.548855   0.704548
H  -6.773055  -1.242048   2.235795
H  -6.874048  -2.074947   0.599465
H  -7.267261  -0.329497   0.724033
