%chk=/home/boittier/MDCM/nms_sampling/cyanomethane_geom.xyz.dir/cyanomethane_3116.chk
%nproc=8
%mem=16000MB
#p B2PLYPD3/Def2QZVP 

cyanomethane

0 1
C  -6.627023  -1.089328   1.182773
C  -5.195962  -0.841793   0.898042
N  -4.077714  -0.507886   0.702831
H  -6.645727  -1.299104   2.195741
H  -7.008603  -2.109653   0.622559
H  -7.139788  -0.274735   0.802598
