%chk=/home/boittier/MDCM/nms_sampling/cyanomethane_geom.xyz.dir/cyanomethane_350.chk
%nproc=8
%mem=16000MB
#p B2PLYPD3/Def2QZVP 

cyanomethane

0 1
C  -6.589378  -1.115875   1.162435
C  -5.202369  -0.774325   0.914373
N  -4.099068  -0.547646   0.700410
H  -6.803843  -1.246541   2.246643
H  -6.807539  -2.054935   0.649328
H  -7.264614  -0.326453   0.788007

