%chk=/home/boittier/MDCM/nms_sampling/cyanomethane_geom.xyz.dir/cyanomethane_2903.chk
%nproc=8
%mem=16000MB
#p B2PLYPD3/Def2QZVP 

cyanomethane

0 1
C  -6.617781  -1.141680   1.164873
C  -5.199781  -0.800721   0.865960
N  -4.080826  -0.527746   0.726143
H  -6.815361  -1.123897   2.205817
H  -6.882048  -1.955624   0.788613
H  -7.117402  -0.233011   0.878618

