%chk=/home/boittier/MDCM/nms_sampling/cyanomethane_geom.xyz.dir/cyanomethane_1557.chk
%nproc=8
%mem=16000MB
#p B2PLYPD3/Def2QZVP 

cyanomethane

0 1
C  -6.584680  -1.116813   1.165070
C  -5.208602  -0.806570   0.882392
N  -4.099181  -0.530343   0.718294
H  -6.829360  -1.171947   2.249925
H  -6.809916  -2.024209   0.730208
H  -7.215606  -0.299221   0.811369
