%chk=/home/boittier/MDCM/nms_sampling/cyanomethane_geom.xyz.dir/cyanomethane_2710.chk
%nproc=8
%mem=16000MB
#p B2PLYPD3/Def2QZVP 

cyanomethane

0 1
C  -6.610980  -1.118070   1.185325
C  -5.199219  -0.852824   0.912082
N  -4.089970  -0.503497   0.693389
H  -6.586179  -1.109399   2.135882
H  -6.958584  -1.992224   0.675806
H  -7.232944  -0.192668   0.749216

