%chk=/home/boittier/MDCM/nms_sampling/cyanomethane_geom.xyz.dir/cyanomethane_2049.chk
%nproc=8
%mem=16000MB
#p B2PLYPD3/Def2QZVP 

cyanomethane

0 1
C  -6.596546  -1.096351   1.170473
C  -5.197217  -0.822761   0.914677
N  -4.091474  -0.523400   0.699174
H  -6.800578  -1.214650   2.262045
H  -6.874236  -2.065361   0.632496
H  -7.285377  -0.344805   0.726115

