%chk=/home/boittier/MDCM/nms_sampling/cyanomethane_geom.xyz.dir/cyanomethane_2435.chk
%nproc=8
%mem=16000MB
#p B2PLYPD3/Def2QZVP 

cyanomethane

0 1
C  -6.629647  -1.112043   1.166038
C  -5.190254  -0.828486   0.917155
N  -4.082620  -0.515662   0.690630
H  -6.554572  -1.194927   2.221424
H  -6.983535  -1.976232   0.694341
H  -7.226965  -0.306272   0.827526
