%chk=/home/boittier/MDCM/nms_sampling/cyanomethane_geom.xyz.dir/cyanomethane_44.chk
%nproc=8
%mem=16000MB
#p B2PLYPD3/Def2QZVP 

cyanomethane

0 1
C  -6.588085  -1.116333   1.167360
C  -5.204228  -0.781616   0.898100
N  -4.096660  -0.544813   0.707691
H  -6.789980  -1.215324   2.250367
H  -6.815814  -2.047409   0.679274
H  -7.296700  -0.323930   0.787246

