%chk=/home/boittier/MDCM/nms_sampling/cyanomethane_geom.xyz.dir/cyanomethane_1400.chk
%nproc=8
%mem=16000MB
#p B2PLYPD3/Def2QZVP 

cyanomethane

0 1
C  -6.582254  -1.128215   1.153120
C  -5.204037  -0.775799   0.938223
N  -4.101790  -0.542548   0.685272
H  -6.738733  -1.214553   2.228906
H  -6.925336  -1.958337   0.666461
H  -7.239987  -0.354314   0.815216

