%chk=/home/boittier/MDCM/nms_sampling/cyanomethane_geom.xyz.dir/cyanomethane_1087.chk
%nproc=8
%mem=16000MB
#p B2PLYPD3/Def2QZVP 

cyanomethane

0 1
C  -6.597946  -1.113770   1.172820
C  -5.201436  -0.813510   0.908721
N  -4.091552  -0.524866   0.700558
H  -6.749801  -1.181007   2.232606
H  -6.910860  -2.017924   0.654622
H  -7.228722  -0.311331   0.750757
