%chk=/home/boittier/MDCM/nms_sampling/cyanomethane_geom.xyz.dir/cyanomethane_3574.chk
%nproc=8
%mem=16000MB
#p B2PLYPD3/Def2QZVP 

cyanomethane

0 1
C  -6.626434  -1.134761   1.169224
C  -5.198254  -0.735193   0.878255
N  -4.076631  -0.567896   0.718385
H  -6.785398  -1.166445   2.223748
H  -6.768499  -2.121294   0.774662
H  -7.234827  -0.328921   0.766552

