%chk=/home/boittier/MDCM/nms_sampling/cyanomethane_geom.xyz.dir/cyanomethane_2625.chk
%nproc=8
%mem=16000MB
#p B2PLYPD3/Def2QZVP 

cyanomethane

0 1
C  -6.605047  -1.144154   1.187766
C  -5.190347  -0.729018   0.875609
N  -4.085371  -0.572299   0.714284
H  -6.757308  -1.150506   2.256741
H  -6.858492  -2.022188   0.664276
H  -7.407549  -0.343496   0.712606

