%chk=/home/boittier/MDCM/nms_sampling/cyanomethane_geom.xyz.dir/cyanomethane_3375.chk
%nproc=8
%mem=16000MB
#p B2PLYPD3/Def2QZVP 

cyanomethane

0 1
C  -6.593755  -1.124335   1.179237
C  -5.213894  -0.826327   0.876667
N  -4.101500  -0.514539   0.714325
H  -6.616138  -1.187537   2.215194
H  -6.924110  -1.934213   0.677411
H  -7.107359  -0.257868   0.852714
