%chk=/home/boittier/MDCM/nms_sampling/cyanomethane_geom.xyz.dir/cyanomethane_3136.chk
%nproc=8
%mem=16000MB
#p B2PLYPD3/Def2QZVP 

cyanomethane

0 1
C  -6.570451  -1.133891   1.180497
C  -5.214471  -0.754869   0.948967
N  -4.103948  -0.554310   0.674678
H  -6.645687  -1.220624   2.166603
H  -6.936777  -2.083208   0.559642
H  -7.305321  -0.232988   0.693978

