%chk=/home/boittier/MDCM/nms_sampling/cyanomethane_geom.xyz.dir/cyanomethane_3432.chk
%nproc=8
%mem=16000MB
#p B2PLYPD3/Def2QZVP 

cyanomethane

0 1
C  -6.624329  -1.136256   1.175800
C  -5.199781  -0.764655   0.931942
N  -4.078112  -0.551698   0.683881
H  -6.609217  -1.147791   2.196945
H  -6.853858  -2.025559   0.639529
H  -7.315220  -0.277588   0.707083

