%chk=/home/boittier/MDCM/nms_sampling/cyanomethane_geom.xyz.dir/cyanomethane_994.chk
%nproc=8
%mem=16000MB
#p B2PLYPD3/Def2QZVP 

cyanomethane

0 1
C  -6.593928  -1.109369   1.158526
C  -5.202685  -0.793540   0.927114
N  -4.098717  -0.536420   0.691643
H  -6.724241  -1.247387   2.222335
H  -6.859794  -2.030289   0.667929
H  -7.238041  -0.349907   0.807465

