%chk=/home/boittier/MDCM/nms_sampling/cyanomethane_geom.xyz.dir/cyanomethane_2502.chk
%nproc=8
%mem=16000MB
#p B2PLYPD3/Def2QZVP 

cyanomethane

0 1
C  -6.600827  -1.115867   1.141499
C  -5.199611  -0.742599   0.945817
N  -4.085166  -0.564985   0.686785
H  -6.868333  -1.343735   2.246726
H  -6.775600  -2.076611   0.628503
H  -7.320734  -0.323120   0.861278
