%chk=/home/boittier/MDCM/nms_sampling/cyanomethane_geom.xyz.dir/cyanomethane_1108.chk
%nproc=8
%mem=16000MB
#p B2PLYPD3/Def2QZVP 

cyanomethane

0 1
C  -6.598181  -1.112843   1.174341
C  -5.198342  -0.793904   0.883719
N  -4.092455  -0.535649   0.714539
H  -6.792339  -1.248666   2.249785
H  -6.886489  -2.035367   0.653642
H  -7.230880  -0.320296   0.809808

