%chk=/home/boittier/MDCM/nms_sampling/cyanomethane_geom.xyz.dir/cyanomethane_1818.chk
%nproc=8
%mem=16000MB
#p B2PLYPD3/Def2QZVP 

cyanomethane

0 1
C  -6.595447  -1.109566   1.168041
C  -5.206762  -0.788201   0.931453
N  -4.096346  -0.542260   0.687878
H  -6.683130  -1.239115   2.188021
H  -6.794854  -2.071869   0.638410
H  -7.309154  -0.297840   0.764954

