%chk=/home/boittier/MDCM/nms_sampling/cyanomethane_geom.xyz.dir/cyanomethane_2267.chk
%nproc=8
%mem=16000MB
#p B2PLYPD3/Def2QZVP 

cyanomethane

0 1
C  -6.595922  -1.125839   1.164405
C  -5.201594  -0.755799   0.909516
N  -4.098780  -0.554695   0.699796
H  -6.723463  -1.251112   2.184732
H  -6.858424  -2.047466   0.695988
H  -7.225122  -0.332828   0.828309
