%chk=/home/boittier/MDCM/nms_sampling/cyanomethane_geom.xyz.dir/cyanomethane_395.chk
%nproc=8
%mem=16000MB
#p B2PLYPD3/Def2QZVP 

cyanomethane

0 1
C  -6.604615  -1.108273   1.165119
C  -5.199248  -0.814403   0.911760
N  -4.093164  -0.525468   0.699685
H  -6.728698  -1.217618   2.222556
H  -6.862802  -2.012873   0.673120
H  -7.220739  -0.322135   0.803627
