%chk=/home/boittier/MDCM/nms_sampling/cyanomethane_geom.xyz.dir/cyanomethane_929.chk
%nproc=8
%mem=16000MB
#p B2PLYPD3/Def2QZVP 

cyanomethane

0 1
C  -6.587523  -1.108575   1.174253
C  -5.203974  -0.793259   0.888553
N  -4.096902  -0.537182   0.711760
H  -6.784331  -1.265819   2.227718
H  -6.868166  -2.047442   0.651754
H  -7.255296  -0.324985   0.814123

