%chk=/home/boittier/MDCM/nms_sampling/cyanomethane_geom.xyz.dir/cyanomethane_1585.chk
%nproc=8
%mem=16000MB
#p B2PLYPD3/Def2QZVP 

cyanomethane

0 1
C  -6.609245  -1.115784   1.190527
C  -5.200430  -0.799775   0.863068
N  -4.086695  -0.532162   0.724329
H  -6.770034  -1.222147   2.236189
H  -6.871903  -2.050207   0.633859
H  -7.189081  -0.283071   0.769596
