%chk=/home/boittier/MDCM/nms_sampling/cyanomethane_geom.xyz.dir/cyanomethane_2139.chk
%nproc=8
%mem=16000MB
#p B2PLYPD3/Def2QZVP 

cyanomethane

0 1
C  -6.589777  -1.113562   1.178994
C  -5.203158  -0.803041   0.865112
N  -4.103029  -0.530427   0.721954
H  -6.711922  -1.217053   2.239283
H  -6.896691  -2.022542   0.706481
H  -7.195389  -0.331335   0.824514

