%chk=/home/boittier/MDCM/nms_sampling/cyanomethane_geom.xyz.dir/cyanomethane_16.chk
%nproc=8
%mem=16000MB
#p B2PLYPD3/Def2QZVP 

cyanomethane

0 1
C  -6.589245  -1.120162   1.162141
C  -5.203610  -0.782411   0.928616
N  -4.098225  -0.539437   0.690949
H  -6.756848  -1.229574   2.224201
H  -6.911748  -2.021811   0.644953
H  -7.205602  -0.336203   0.779718

