%chk=/home/boittier/MDCM/nms_sampling/cyanomethane_geom.xyz.dir/cyanomethane_839.chk
%nproc=8
%mem=16000MB
#p B2PLYPD3/Def2QZVP 

cyanomethane

0 1
C  -6.602891  -1.105362   1.166782
C  -5.201692  -0.795099   0.920030
N  -4.090811  -0.537036   0.696047
H  -6.754028  -1.243157   2.220154
H  -6.830925  -2.093817   0.650506
H  -7.251113  -0.314859   0.762533

