%chk=/home/boittier/MDCM/nms_sampling/cyanomethane_geom.xyz.dir/cyanomethane_3255.chk
%nproc=8
%mem=16000MB
#p B2PLYPD3/Def2QZVP 

cyanomethane

0 1
C  -6.582444  -1.132737   1.180580
C  -5.203539  -0.727098   0.899469
N  -4.097069  -0.570418   0.703427
H  -6.760408  -1.217640   2.313347
H  -6.906701  -2.104209   0.603235
H  -7.307326  -0.358746   0.678668

