%chk=/home/boittier/MDCM/nms_sampling/cyanomethane_geom.xyz.dir/cyanomethane_2455.chk
%nproc=8
%mem=16000MB
#p B2PLYPD3/Def2QZVP 

cyanomethane

0 1
C  -6.570611  -1.110330   1.182307
C  -5.211925  -0.827361   0.846278
N  -4.102421  -0.522266   0.734946
H  -6.831592  -1.159195   2.250107
H  -6.814412  -1.979990   0.722811
H  -7.293830  -0.311722   0.814151

