%chk=/home/boittier/MDCM/nms_sampling/cyanomethane_geom.xyz.dir/cyanomethane_435.chk
%nproc=8
%mem=16000MB
#p B2PLYPD3/Def2QZVP 

cyanomethane

0 1
C  -6.598818  -1.118006   1.159677
C  -5.199854  -0.769887   0.911761
N  -4.090538  -0.548974   0.700796
H  -6.796172  -1.245652   2.236609
H  -6.849989  -2.023178   0.680273
H  -7.265291  -0.369379   0.814276
