%chk=/home/boittier/MDCM/nms_sampling/cyanomethane_geom.xyz.dir/cyanomethane_3263.chk
%nproc=8
%mem=16000MB
#p B2PLYPD3/Def2QZVP 

cyanomethane

0 1
C  -6.587729  -1.128820   1.182395
C  -5.212432  -0.726318   0.888646
N  -4.103781  -0.573794   0.710077
H  -6.693448  -1.268662   2.237244
H  -6.739283  -2.169274   0.624843
H  -7.272130  -0.250331   0.750011
