%chk=/home/boittier/MDCM/nms_sampling/cyanomethane_geom.xyz.dir/cyanomethane_1350.chk
%nproc=8
%mem=16000MB
#p B2PLYPD3/Def2QZVP 

cyanomethane

0 1
C  -6.586061  -1.122039   1.172469
C  -5.204265  -0.798916   0.898225
N  -4.100314  -0.529786   0.709451
H  -6.840862  -1.194755   2.213204
H  -6.898039  -2.044863   0.662856
H  -7.134889  -0.275569   0.769331

