%chk=/home/boittier/MDCM/nms_sampling/cyanomethane_geom.xyz.dir/cyanomethane_2287.chk
%nproc=8
%mem=16000MB
#p B2PLYPD3/Def2QZVP 

cyanomethane

0 1
C  -6.585146  -1.114844   1.170054
C  -5.208260  -0.760792   0.905617
N  -4.098903  -0.557013   0.702312
H  -6.741237  -1.247901   2.274125
H  -6.788973  -2.093358   0.638352
H  -7.328481  -0.335734   0.754529
