%chk=/home/boittier/MDCM/nms_sampling/cyanomethane_geom.xyz.dir/cyanomethane_712.chk
%nproc=8
%mem=16000MB
#p B2PLYPD3/Def2QZVP 

cyanomethane

0 1
C  -6.588700  -1.119327   1.171649
C  -5.204417  -0.772995   0.904474
N  -4.095987  -0.547304   0.701370
H  -6.730989  -1.227130   2.209267
H  -6.885204  -2.046409   0.675277
H  -7.284672  -0.339032   0.785210

