%chk=/home/boittier/MDCM/nms_sampling/cyanomethane_geom.xyz.dir/cyanomethane_2408.chk
%nproc=8
%mem=16000MB
#p B2PLYPD3/Def2QZVP 

cyanomethane

0 1
C  -6.575615  -1.115670   1.137742
C  -5.203247  -0.789547   0.987417
N  -4.109010  -0.538927   0.662925
H  -6.757017  -1.180368   2.305601
H  -6.847504  -2.051466   0.629467
H  -7.292387  -0.326368   0.707920
