%chk=/home/boittier/MDCM/nms_sampling/cyanomethane_geom.xyz.dir/cyanomethane_331.chk
%nproc=8
%mem=16000MB
#p B2PLYPD3/Def2QZVP 

cyanomethane

0 1
C  -6.588416  -1.113225   1.174701
C  -5.205428  -0.792468   0.884715
N  -4.097073  -0.536209   0.713068
H  -6.755927  -1.247455   2.260859
H  -6.894004  -2.048984   0.652844
H  -7.227354  -0.312764   0.803687

