%chk=/home/boittier/MDCM/nms_sampling/cyanomethane_geom.xyz.dir/cyanomethane_559.chk
%nproc=8
%mem=16000MB
#p B2PLYPD3/Def2QZVP 

cyanomethane

0 1
C  -6.598834  -1.109326   1.160232
C  -5.203327  -0.817519   0.912301
N  -4.095871  -0.524198   0.701790
H  -6.769418  -1.194365   2.244027
H  -6.824019  -2.026148   0.689072
H  -7.201930  -0.304705   0.794613
