%chk=/home/boittier/MDCM/nms_sampling/cyanomethane_geom.xyz.dir/cyanomethane_355.chk
%nproc=8
%mem=16000MB
#p B2PLYPD3/Def2QZVP 

cyanomethane

0 1
C  -6.599521  -1.110339   1.163725
C  -5.200152  -0.792948   0.928546
N  -4.090488  -0.537532   0.691277
H  -6.759874  -1.231694   2.253418
H  -6.862635  -2.059908   0.627718
H  -7.278842  -0.317819   0.754232

