%chk=/home/boittier/MDCM/nms_sampling/cyanomethane_geom.xyz.dir/cyanomethane_2571.chk
%nproc=8
%mem=16000MB
#p B2PLYPD3/Def2QZVP 

cyanomethane

0 1
C  -6.618128  -1.127892   1.155284
C  -5.202601  -0.763734   0.950862
N  -4.082688  -0.544563   0.678114
H  -6.671116  -1.272180   2.267665
H  -6.973927  -2.069685   0.598120
H  -7.109242  -0.288263   0.779664
