%chk=/home/boittier/MDCM/nms_sampling/cyanomethane_geom.xyz.dir/cyanomethane_1993.chk
%nproc=8
%mem=16000MB
#p B2PLYPD3/Def2QZVP 

cyanomethane

0 1
C  -6.596048  -1.105276   1.172971
C  -5.205897  -0.813341   0.906405
N  -4.097120  -0.524048   0.700027
H  -6.666765  -1.263018   2.251410
H  -6.927423  -2.049783   0.620977
H  -7.185205  -0.299762   0.796187

