%chk=/home/boittier/MDCM/nms_sampling/cyanomethane_geom.xyz.dir/cyanomethane_575.chk
%nproc=8
%mem=16000MB
#p B2PLYPD3/Def2QZVP 

cyanomethane

0 1
C  -6.603992  -1.106621   1.168076
C  -5.199110  -0.808823   0.902375
N  -4.092600  -0.528443   0.705115
H  -6.749131  -1.241413   2.258935
H  -6.862816  -2.053960   0.649840
H  -7.217176  -0.301857   0.795924

