%chk=/home/boittier/MDCM/nms_sampling/cyanomethane_geom.xyz.dir/cyanomethane_3518.chk
%nproc=8
%mem=16000MB
#p B2PLYPD3/Def2QZVP 

cyanomethane

0 1
C  -6.595154  -1.086871   1.171176
C  -5.213037  -0.834164   0.923041
N  -4.103703  -0.517129   0.693273
H  -6.636942  -1.322488   2.254449
H  -6.789340  -2.068265   0.549671
H  -7.187775  -0.275841   0.796667

