%chk=/home/boittier/MDCM/nms_sampling/cyanomethane_geom.xyz.dir/cyanomethane_2087.chk
%nproc=8
%mem=16000MB
#p B2PLYPD3/Def2QZVP 

cyanomethane

0 1
C  -6.598892  -1.110739   1.154443
C  -5.201032  -0.830459   0.925098
N  -4.096436  -0.517247   0.695799
H  -6.775513  -1.149797   2.226705
H  -6.833360  -2.032061   0.722534
H  -7.205096  -0.272541   0.784357

