%chk=/home/boittier/MDCM/nms_sampling/cyanomethane_geom.xyz.dir/cyanomethane_1830.chk
%nproc=8
%mem=16000MB
#p B2PLYPD3/Def2QZVP 

cyanomethane

0 1
C  -6.585978  -1.116694   1.173297
C  -5.207779  -0.811493   0.909313
N  -4.100020  -0.524920   0.700473
H  -6.731376  -1.173006   2.276841
H  -6.912974  -2.056327   0.634519
H  -7.194610  -0.269763   0.723615
