%chk=/home/boittier/MDCM/nms_sampling/cyanomethane_geom.xyz.dir/cyanomethane_1056.chk
%nproc=8
%mem=16000MB
#p B2PLYPD3/Def2QZVP 

cyanomethane

0 1
C  -6.600683  -1.113768   1.158242
C  -5.197340  -0.780502   0.917179
N  -4.090754  -0.543607   0.698334
H  -6.796324  -1.261380   2.225209
H  -6.851365  -2.042982   0.671731
H  -7.267626  -0.328368   0.827659
