%chk=/home/boittier/MDCM/nms_sampling/cyanomethane_geom.xyz.dir/cyanomethane_183.chk
%nproc=8
%mem=16000MB
#p B2PLYPD3/Def2QZVP 

cyanomethane

0 1
C  -6.598714  -1.116493   1.174564
C  -5.202011  -0.780471   0.902229
N  -4.096766  -0.543731   0.704336
H  -6.739836  -1.228496   2.227878
H  -6.825318  -2.067089   0.643933
H  -7.233919  -0.310753   0.760938
