%chk=/home/boittier/MDCM/nms_sampling/cyanomethane_geom.xyz.dir/cyanomethane_3178.chk
%nproc=8
%mem=16000MB
#p B2PLYPD3/Def2QZVP 

cyanomethane

0 1
C  -6.614009  -1.115106   1.184576
C  -5.196725  -0.837153   0.903438
N  -4.090172  -0.511560   0.698910
H  -6.609144  -1.096250   2.238272
H  -6.962384  -2.040076   0.675439
H  -7.200124  -0.275318   0.680430

