%chk=/home/boittier/MDCM/nms_sampling/cyanomethane_geom.xyz.dir/cyanomethane_2286.chk
%nproc=8
%mem=16000MB
#p B2PLYPD3/Def2QZVP 

cyanomethane

0 1
C  -6.590678  -1.120460   1.164598
C  -5.207732  -0.810268   0.910060
N  -4.097653  -0.524793   0.702541
H  -6.778777  -1.186166   2.225359
H  -6.878741  -2.024513   0.675672
H  -7.156410  -0.257316   0.793592
