%chk=/home/boittier/MDCM/nms_sampling/cyanomethane_geom.xyz.dir/cyanomethane_1610.chk
%nproc=8
%mem=16000MB
#p B2PLYPD3/Def2QZVP 

cyanomethane

0 1
C  -6.582929  -1.095622   1.166014
C  -5.206864  -0.839089   0.916202
N  -4.096390  -0.513986   0.699343
H  -6.799699  -1.227310   2.266441
H  -6.878860  -2.066108   0.628328
H  -7.259397  -0.272964   0.767608

