%chk=/home/boittier/MDCM/nms_sampling/cyanomethane_geom.xyz.dir/cyanomethane_1024.chk
%nproc=8
%mem=16000MB
#p B2PLYPD3/Def2QZVP 

cyanomethane

0 1
C  -6.593174  -1.114671   1.167767
C  -5.201394  -0.779824   0.908090
N  -4.095338  -0.546459   0.701325
H  -6.758383  -1.221934   2.241691
H  -6.812467  -2.037244   0.661552
H  -7.323742  -0.341620   0.776282

