%chk=/home/boittier/MDCM/nms_sampling/cyanomethane_geom.xyz.dir/cyanomethane_7.chk
%nproc=8
%mem=16000MB
#p B2PLYPD3/Def2QZVP 

cyanomethane

0 1
C  -6.597324  -1.107502   1.159809
C  -5.197945  -0.815495   0.920048
N  -4.091882  -0.524737   0.698147
H  -6.823339  -1.206790   2.244613
H  -6.878235  -2.050263   0.671380
H  -7.232574  -0.301556   0.778320

