%chk=/home/boittier/MDCM/nms_sampling/cyanomethane_geom.xyz.dir/cyanomethane_970.chk
%nproc=8
%mem=16000MB
#p B2PLYPD3/Def2QZVP 

cyanomethane

0 1
C  -6.596071  -1.111562   1.168506
C  -5.201227  -0.806163   0.897428
N  -4.090482  -0.529389   0.706268
H  -6.753377  -1.220445   2.244295
H  -6.916354  -2.025901   0.680317
H  -7.258303  -0.315641   0.810072

