%chk=/home/boittier/MDCM/nms_sampling/cyanomethane_geom.xyz.dir/cyanomethane_757.chk
%nproc=8
%mem=16000MB
#p B2PLYPD3/Def2QZVP 

cyanomethane

0 1
C  -6.600438  -1.110688   1.163061
C  -5.198236  -0.810119   0.915132
N  -4.090493  -0.527128   0.700558
H  -6.823301  -1.214913   2.249228
H  -6.869517  -2.020949   0.648678
H  -7.220369  -0.314059   0.780882

