%chk=/home/boittier/MDCM/nms_sampling/cyanomethane_geom.xyz.dir/cyanomethane_2939.chk
%nproc=8
%mem=16000MB
#p B2PLYPD3/Def2QZVP 

cyanomethane

0 1
C  -6.584855  -1.112555   1.194308
C  -5.206658  -0.826110   0.903129
N  -4.108993  -0.519271   0.699736
H  -6.642826  -1.152194   2.121876
H  -6.878289  -2.045018   0.642964
H  -7.216783  -0.257715   0.702853

