%chk=/home/boittier/MDCM/nms_sampling/cyanomethane_geom.xyz.dir/cyanomethane_457.chk
%nproc=8
%mem=16000MB
#p B2PLYPD3/Def2QZVP 

cyanomethane

0 1
C  -6.598177  -1.107475   1.165634
C  -5.202228  -0.800960   0.897926
N  -4.096345  -0.532194   0.708664
H  -6.778360  -1.255361   2.234928
H  -6.842303  -2.049220   0.673232
H  -7.187763  -0.323213   0.822357

