%chk=/home/boittier/MDCM/nms_sampling/cyanomethane_geom.xyz.dir/cyanomethane_1303.chk
%nproc=8
%mem=16000MB
#p B2PLYPD3/Def2QZVP 

cyanomethane

0 1
C  -6.585669  -1.123540   1.154954
C  -5.201247  -0.786200   0.939253
N  -4.098627  -0.538584   0.685311
H  -6.759120  -1.165199   2.211262
H  -6.919087  -2.030451   0.709747
H  -7.261612  -0.328837   0.763549

