%chk=/home/boittier/MDCM/nms_sampling/cyanomethane_geom.xyz.dir/cyanomethane_592.chk
%nproc=8
%mem=16000MB
#p B2PLYPD3/Def2QZVP 

cyanomethane

0 1
C  -6.594036  -1.105577   1.170668
C  -5.205014  -0.802607   0.906320
N  -4.096911  -0.531606   0.701873
H  -6.726628  -1.263709   2.208786
H  -6.869300  -2.058075   0.650081
H  -7.220485  -0.312215   0.806808

