%chk=/home/boittier/MDCM/nms_sampling/cyanomethane_geom.xyz.dir/cyanomethane_2580.chk
%nproc=8
%mem=16000MB
#p B2PLYPD3/Def2QZVP 

cyanomethane

0 1
C  -6.589637  -1.110277   1.146402
C  -5.213219  -0.841013   0.928649
N  -4.103752  -0.508823   0.696043
H  -6.775217  -1.140220   2.228191
H  -6.829320  -1.998737   0.750571
H  -7.072414  -0.309692   0.803936
