%chk=/home/boittier/MDCM/nms_sampling/cyanomethane_geom.xyz.dir/cyanomethane_2798.chk
%nproc=8
%mem=16000MB
#p B2PLYPD3/Def2QZVP 

cyanomethane

0 1
C  -6.595058  -1.112031   1.204327
C  -5.195036  -0.805434   0.838842
N  -4.088942  -0.528432   0.736214
H  -6.835270  -1.200308   2.298826
H  -6.982293  -2.133330   0.617420
H  -7.218082  -0.261892   0.695675

