%chk=/home/boittier/MDCM/nms_sampling/cyanomethane_geom.xyz.dir/cyanomethane_625.chk
%nproc=8
%mem=16000MB
#p B2PLYPD3/Def2QZVP 

cyanomethane

0 1
C  -6.598489  -1.110256   1.172166
C  -5.203579  -0.809935   0.909345
N  -4.095717  -0.526463   0.700653
H  -6.727049  -1.211749   2.238272
H  -6.886083  -2.056327   0.644113
H  -7.184965  -0.299624   0.755992

