%chk=/home/boittier/MDCM/nms_sampling/cyanomethane_geom.xyz.dir/cyanomethane_1805.chk
%nproc=8
%mem=16000MB
#p B2PLYPD3/Def2QZVP 

cyanomethane

0 1
C  -6.594381  -1.118097   1.169500
C  -5.202464  -0.798952   0.872326
N  -4.090671  -0.534322   0.724023
H  -6.883868  -1.180689   2.235888
H  -6.818773  -2.008565   0.725867
H  -7.228300  -0.327236   0.813039
