%chk=/home/boittier/MDCM/nms_sampling/cyanomethane_geom.xyz.dir/cyanomethane_2199.chk
%nproc=8
%mem=16000MB
#p B2PLYPD3/Def2QZVP 

cyanomethane

0 1
C  -6.584937  -1.105508   1.168785
C  -5.205635  -0.800700   0.886124
N  -4.095683  -0.535275   0.712870
H  -6.775336  -1.266523   2.236545
H  -6.848336  -2.025649   0.678476
H  -7.312353  -0.324757   0.853320
