%chk=/home/boittier/MDCM/nms_sampling/cyanomethane_geom.xyz.dir/cyanomethane_2297.chk
%nproc=8
%mem=16000MB
#p B2PLYPD3/Def2QZVP 

cyanomethane

0 1
C  -6.616639  -1.113218   1.185626
C  -5.194603  -0.789480   0.863725
N  -4.087641  -0.538030   0.722802
H  -6.725590  -1.224071   2.249808
H  -6.877554  -2.067647   0.675152
H  -7.195849  -0.338625   0.773988

