%chk=/home/boittier/MDCM/nms_sampling/cyanomethane_geom.xyz.dir/cyanomethane_160.chk
%nproc=8
%mem=16000MB
#p B2PLYPD3/Def2QZVP 

cyanomethane

0 1
C  -6.597752  -1.118297   1.172001
C  -5.201139  -0.779980   0.896707
N  -4.090461  -0.543326   0.705518
H  -6.734551  -1.239469   2.237855
H  -6.895813  -2.022495   0.659559
H  -7.278733  -0.335010   0.805101

