%chk=/home/boittier/MDCM/nms_sampling/cyanomethane_geom.xyz.dir/cyanomethane_2417.chk
%nproc=8
%mem=16000MB
#p B2PLYPD3/Def2QZVP 

cyanomethane

0 1
C  -6.599806  -1.106631   1.173189
C  -5.199647  -0.831885   0.921816
N  -4.079645  -0.514299   0.687072
H  -6.639944  -1.179699   2.182090
H  -7.091309  -1.981861   0.691675
H  -7.322465  -0.358316   0.777350

