%chk=/home/boittier/MDCM/nms_sampling/cyanomethane_geom.xyz.dir/cyanomethane_2586.chk
%nproc=8
%mem=16000MB
#p B2PLYPD3/Def2QZVP 

cyanomethane

0 1
C  -6.605258  -1.092478   1.156211
C  -5.201807  -0.843465   0.897412
N  -4.098379  -0.510648   0.709677
H  -6.736406  -1.219976   2.239558
H  -6.830789  -2.018736   0.747636
H  -7.133608  -0.369438   0.849564
