%chk=/home/boittier/MDCM/nms_sampling/cyanomethane_geom.xyz.dir/cyanomethane_692.chk
%nproc=8
%mem=16000MB
#p B2PLYPD3/Def2QZVP 

cyanomethane

0 1
C  -6.595955  -1.111923   1.161644
C  -5.201665  -0.794074   0.924068
N  -4.090812  -0.536191   0.694572
H  -6.795741  -1.230579   2.218450
H  -6.867504  -2.033400   0.657983
H  -7.257349  -0.332501   0.785957

