%chk=/home/boittier/MDCM/nms_sampling/cyanomethane_geom.xyz.dir/cyanomethane_1002.chk
%nproc=8
%mem=16000MB
#p B2PLYPD3/Def2QZVP 

cyanomethane

0 1
C  -6.588178  -1.113274   1.164695
C  -5.204683  -0.797312   0.891117
N  -4.097454  -0.534207   0.713410
H  -6.831245  -1.217889   2.255861
H  -6.845581  -2.055017   0.696174
H  -7.207145  -0.310311   0.806841

