%chk=/home/boittier/MDCM/nms_sampling/cyanomethane_geom.xyz.dir/cyanomethane_3400.chk
%nproc=8
%mem=16000MB
#p B2PLYPD3/Def2QZVP 

cyanomethane

0 1
C  -6.596302  -1.112494   1.144501
C  -5.210806  -0.765778   0.909994
N  -4.096942  -0.553040   0.709306
H  -6.876555  -1.275578   2.293184
H  -6.670193  -2.158240   0.703866
H  -7.171729  -0.264301   0.834713

