%chk=/home/boittier/MDCM/nms_sampling/cyanomethane_geom.xyz.dir/cyanomethane_1083.chk
%nproc=8
%mem=16000MB
#p B2PLYPD3/Def2QZVP 

cyanomethane

0 1
C  -6.594832  -1.109550   1.167568
C  -5.202377  -0.779346   0.900407
N  -4.098759  -0.544934   0.705408
H  -6.733954  -1.281127   2.239105
H  -6.829367  -2.083246   0.658437
H  -7.249207  -0.316784   0.818500

