%chk=/home/boittier/MDCM/nms_sampling/cyanomethane_geom.xyz.dir/cyanomethane_1082.chk
%nproc=8
%mem=16000MB
#p B2PLYPD3/Def2QZVP 

cyanomethane

0 1
C  -6.598232  -1.110772   1.160403
C  -5.204789  -0.804010   0.925434
N  -4.095502  -0.530231   0.694676
H  -6.766854  -1.223095   2.221954
H  -6.835444  -2.036162   0.658525
H  -7.187681  -0.314956   0.784936

