%chk=/home/boittier/MDCM/nms_sampling/cyanomethane_geom.xyz.dir/cyanomethane_1661.chk
%nproc=8
%mem=16000MB
#p B2PLYPD3/Def2QZVP 

cyanomethane

0 1
C  -6.609825  -1.126095   1.167984
C  -5.202159  -0.764218   0.907804
N  -4.087754  -0.549597   0.702502
H  -6.756589  -1.221051   2.258549
H  -6.850741  -2.076822   0.650501
H  -7.181811  -0.304635   0.758780
