%chk=/home/boittier/MDCM/nms_sampling/cyanomethane_geom.xyz.dir/cyanomethane_1194.chk
%nproc=8
%mem=16000MB
#p B2PLYPD3/Def2QZVP 

cyanomethane

0 1
C  -6.591124  -1.115031   1.158802
C  -5.202598  -0.784648   0.922372
N  -4.096151  -0.542189   0.694768
H  -6.762357  -1.218901   2.233325
H  -6.844100  -2.050555   0.684395
H  -7.286013  -0.324537   0.790949

