%chk=/home/boittier/MDCM/nms_sampling/cyanomethane_geom.xyz.dir/cyanomethane_2577.chk
%nproc=8
%mem=16000MB
#p B2PLYPD3/Def2QZVP 

cyanomethane

0 1
C  -6.592652  -1.108887   1.188110
C  -5.195259  -0.852078   0.901178
N  -4.092411  -0.502157   0.701215
H  -6.716536  -1.169009   2.241348
H  -7.063929  -2.049746   0.601382
H  -7.233663  -0.204983   0.718374
