%chk=/home/boittier/MDCM/nms_sampling/cyanomethane_geom.xyz.dir/cyanomethane_1251.chk
%nproc=8
%mem=16000MB
#p B2PLYPD3/Def2QZVP 

cyanomethane

0 1
C  -6.580709  -1.106385   1.160862
C  -5.203407  -0.804856   0.937476
N  -4.103044  -0.532936   0.684835
H  -6.708495  -1.212248   2.247766
H  -6.868482  -2.033492   0.645206
H  -7.337236  -0.335014   0.757079
