%chk=/home/boittier/MDCM/nms_sampling/cyanomethane_geom.xyz.dir/cyanomethane_3248.chk
%nproc=8
%mem=16000MB
#p B2PLYPD3/Def2QZVP 

cyanomethane

0 1
C  -6.591836  -1.108695   1.134786
C  -5.200340  -0.763033   0.962956
N  -4.085653  -0.551488   0.677694
H  -6.879125  -1.328336   2.271294
H  -6.895665  -2.080829   0.636616
H  -7.283928  -0.359008   0.836004
