%chk=/home/boittier/MDCM/nms_sampling/cyanomethane_geom.xyz.dir/cyanomethane_1125.chk
%nproc=8
%mem=16000MB
#p B2PLYPD3/Def2QZVP 

cyanomethane

0 1
C  -6.597498  -1.108437   1.161713
C  -5.201603  -0.811457   0.918106
N  -4.091056  -0.527230   0.697922
H  -6.790563  -1.209771   2.233886
H  -6.868094  -2.013959   0.670024
H  -7.241480  -0.336998   0.786560

