%chk=/home/boittier/MDCM/nms_sampling/cyanomethane_geom.xyz.dir/cyanomethane_3238.chk
%nproc=8
%mem=16000MB
#p B2PLYPD3/Def2QZVP 

cyanomethane

0 1
C  -6.633154  -1.125159   1.147836
C  -5.188619  -0.789205   0.986421
N  -4.082694  -0.538302   0.662910
H  -6.731130  -1.134408   2.147586
H  -6.787387  -2.004737   0.672061
H  -7.226141  -0.322004   0.709133
