%chk=/home/boittier/MDCM/nms_sampling/cyanomethane_geom.xyz.dir/cyanomethane_2777.chk
%nproc=8
%mem=16000MB
#p B2PLYPD3/Def2QZVP 

cyanomethane

0 1
C  -6.579229  -1.110387   1.162717
C  -5.205767  -0.815774   0.853101
N  -4.094121  -0.527631   0.739662
H  -7.028256  -1.224286   2.321062
H  -6.751114  -2.010314   0.694539
H  -7.247311  -0.268068   0.867785

