%chk=/home/boittier/MDCM/nms_sampling/cyanomethane_geom.xyz.dir/cyanomethane_308.chk
%nproc=8
%mem=16000MB
#p B2PLYPD3/Def2QZVP 

cyanomethane

0 1
C  -6.596873  -1.103140   1.166928
C  -5.199635  -0.819986   0.911672
N  -4.094140  -0.523384   0.700808
H  -6.774518  -1.218803   2.237240
H  -6.868901  -2.065423   0.660733
H  -7.243738  -0.292832   0.775229

