%chk=/home/boittier/MDCM/nms_sampling/cyanomethane_geom.xyz.dir/cyanomethane_3172.chk
%nproc=8
%mem=16000MB
#p B2PLYPD3/Def2QZVP 

cyanomethane

0 1
C  -6.613034  -1.089505   1.157099
C  -5.188445  -0.820238   0.956959
N  -4.084251  -0.523307   0.673887
H  -6.695187  -1.346613   2.252080
H  -6.945550  -2.006973   0.542945
H  -7.327494  -0.348092   0.822708

