%chk=/home/boittier/MDCM/nms_sampling/cyanomethane_geom.xyz.dir/cyanomethane_1219.chk
%nproc=8
%mem=16000MB
#p B2PLYPD3/Def2QZVP 

cyanomethane

0 1
C  -6.598647  -1.115618   1.175100
C  -5.196740  -0.779712   0.872392
N  -4.088476  -0.542679   0.719512
H  -6.795476  -1.276714   2.276832
H  -6.923758  -2.056266   0.653281
H  -7.258621  -0.310333   0.833815
