%chk=/home/boittier/MDCM/nms_sampling/cyanomethane_geom.xyz.dir/cyanomethane_989.chk
%nproc=8
%mem=16000MB
#p B2PLYPD3/Def2QZVP 

cyanomethane

0 1
C  -6.587536  -1.115468   1.163137
C  -5.203129  -0.793446   0.891127
N  -4.098981  -0.536417   0.712481
H  -6.810662  -1.222921   2.263147
H  -6.849341  -2.016096   0.694304
H  -7.229751  -0.332876   0.826233

