%chk=/home/boittier/MDCM/nms_sampling/cyanomethane_geom.xyz.dir/cyanomethane_3243.chk
%nproc=8
%mem=16000MB
#p B2PLYPD3/Def2QZVP 

cyanomethane

0 1
C  -6.620704  -1.091489   1.148179
C  -5.198138  -0.798979   0.957913
N  -4.076401  -0.537051   0.673568
H  -6.648623  -1.336623   2.201984
H  -6.859713  -2.114073   0.649932
H  -7.355638  -0.299470   0.853217

