%chk=/home/boittier/MDCM/nms_sampling/cyanomethane_geom.xyz.dir/cyanomethane_2988.chk
%nproc=8
%mem=16000MB
#p B2PLYPD3/Def2QZVP 

cyanomethane

0 1
C  -6.612638  -1.093071   1.155680
C  -5.202912  -0.858401   0.924827
N  -4.083953  -0.500142   0.701324
H  -6.903187  -1.212048   2.251591
H  -6.839543  -2.060878   0.648779
H  -7.059078  -0.281186   0.767635

