%chk=/home/boittier/MDCM/nms_sampling/cyanomethane_geom.xyz.dir/cyanomethane_1900.chk
%nproc=8
%mem=16000MB
#p B2PLYPD3/Def2QZVP 

cyanomethane

0 1
C  -6.608917  -1.108060   1.162193
C  -5.198075  -0.791588   0.933560
N  -4.091042  -0.538193   0.690463
H  -6.773712  -1.243301   2.222927
H  -6.807993  -2.073014   0.629382
H  -7.223315  -0.323106   0.754065

