%chk=/home/boittier/MDCM/nms_sampling/cyanomethane_geom.xyz.dir/cyanomethane_2906.chk
%nproc=8
%mem=16000MB
#p B2PLYPD3/Def2QZVP 

cyanomethane

0 1
C  -6.587996  -1.125510   1.206412
C  -5.199943  -0.787675   0.832176
N  -4.098758  -0.539103   0.739788
H  -6.814423  -1.191441   2.302482
H  -6.876164  -2.033738   0.587899
H  -7.235720  -0.275018   0.718484
