%chk=/home/boittier/MDCM/nms_sampling/cyanomethane_geom.xyz.dir/cyanomethane_3066.chk
%nproc=8
%mem=16000MB
#p B2PLYPD3/Def2QZVP 

cyanomethane

0 1
C  -6.622570  -1.104695   1.172338
C  -5.190431  -0.786158   0.931480
N  -4.083537  -0.547692   0.687017
H  -6.689945  -1.177787   2.172883
H  -6.741603  -2.056289   0.675073
H  -7.407487  -0.396122   0.696403
