%chk=/home/boittier/MDCM/nms_sampling/cyanomethane_geom.xyz.dir/cyanomethane_2235.chk
%nproc=8
%mem=16000MB
#p B2PLYPD3/Def2QZVP 

cyanomethane

0 1
C  -6.582122  -1.104459   1.163810
C  -5.205944  -0.807303   0.934114
N  -4.099595  -0.532622   0.686787
H  -6.717551  -1.195521   2.215200
H  -6.850372  -2.068810   0.671614
H  -7.345597  -0.319545   0.742860

