%chk=/home/boittier/MDCM/nms_sampling/cyanomethane_geom.xyz.dir/cyanomethane_1811.chk
%nproc=8
%mem=16000MB
#p B2PLYPD3/Def2QZVP 

cyanomethane

0 1
C  -6.595595  -1.109240   1.163534
C  -5.201605  -0.794490   0.886994
N  -4.088144  -0.537538   0.716669
H  -6.876134  -1.242424   2.297106
H  -6.825095  -2.074097   0.673249
H  -7.261434  -0.302249   0.809391
