%chk=/home/boittier/MDCM/nms_sampling/cyanomethane_geom.xyz.dir/cyanomethane_88.chk
%nproc=8
%mem=16000MB
#p B2PLYPD3/Def2QZVP 

cyanomethane

0 1
C  -6.600106  -1.109250   1.170966
C  -5.198260  -0.798141   0.885837
N  -4.091393  -0.534987   0.712750
H  -6.764242  -1.229097   2.243604
H  -6.874183  -2.043544   0.694562
H  -7.263868  -0.339100   0.810498
