%chk=/home/boittier/MDCM/nms_sampling/cyanomethane_geom.xyz.dir/cyanomethane_2360.chk
%nproc=8
%mem=16000MB
#p B2PLYPD3/Def2QZVP 

cyanomethane

0 1
C  -6.589523  -1.100431   1.167938
C  -5.205650  -0.833035   0.901517
N  -4.098518  -0.518204   0.704360
H  -6.715765  -1.196923   2.257965
H  -6.852318  -2.010954   0.679538
H  -7.275492  -0.326464   0.790665
