%chk=/home/boittier/MDCM/nms_sampling/cyanomethane_geom.xyz.dir/cyanomethane_166.chk
%nproc=8
%mem=16000MB
#p B2PLYPD3/Def2QZVP 

cyanomethane

0 1
C  -6.600332  -1.119379   1.169356
C  -5.198531  -0.772359   0.903533
N  -4.090650  -0.546122   0.703671
H  -6.774592  -1.259489   2.237274
H  -6.892191  -2.039302   0.641399
H  -7.239898  -0.330356   0.801948

