%chk=/home/boittier/MDCM/nms_sampling/cyanomethane_geom.xyz.dir/cyanomethane_2499.chk
%nproc=8
%mem=16000MB
#p B2PLYPD3/Def2QZVP 

cyanomethane

0 1
C  -6.624451  -1.112246   1.149858
C  -5.192349  -0.737586   0.906498
N  -4.087674  -0.564626   0.706362
H  -6.799663  -1.356027   2.253482
H  -6.784446  -2.120545   0.691607
H  -7.146141  -0.385020   0.876208

