%chk=/home/boittier/MDCM/nms_sampling/cyanomethane_geom.xyz.dir/cyanomethane_1423.chk
%nproc=8
%mem=16000MB
#p B2PLYPD3/Def2QZVP 

cyanomethane

0 1
C  -6.606958  -1.118530   1.155882
C  -5.197667  -0.759610   0.904969
N  -4.092859  -0.556041   0.704333
H  -6.754909  -1.284928   2.212369
H  -6.773528  -2.038002   0.705238
H  -7.276287  -0.332824   0.882230
