%chk=/home/boittier/MDCM/nms_sampling/cyanomethane_geom.xyz.dir/cyanomethane_1848.chk
%nproc=8
%mem=16000MB
#p B2PLYPD3/Def2QZVP 

cyanomethane

0 1
C  -6.595176  -1.115915   1.154564
C  -5.206336  -0.779696   0.940179
N  -4.097249  -0.543582   0.685716
H  -6.724645  -1.255016   2.235851
H  -6.821206  -2.031614   0.636806
H  -7.238189  -0.322442   0.801048

