%chk=/home/boittier/MDCM/nms_sampling/cyanomethane_geom.xyz.dir/cyanomethane_1806.chk
%nproc=8
%mem=16000MB
#p B2PLYPD3/Def2QZVP 

cyanomethane

0 1
C  -6.589485  -1.124127   1.163317
C  -5.204529  -0.757100   0.905186
N  -4.099351  -0.554048   0.704893
H  -6.800725  -1.223992   2.260751
H  -6.844420  -2.060025   0.679737
H  -7.199294  -0.367004   0.771226

