%chk=/home/boittier/MDCM/nms_sampling/cyanomethane_geom.xyz.dir/cyanomethane_1393.chk
%nproc=8
%mem=16000MB
#p B2PLYPD3/Def2QZVP 

cyanomethane

0 1
C  -6.591889  -1.138744   1.160455
C  -5.203750  -0.745850   0.907940
N  -4.101607  -0.559847   0.702172
H  -6.746192  -1.183367   2.223029
H  -6.821911  -2.059485   0.726586
H  -7.222361  -0.294442   0.796373

