%chk=/home/boittier/MDCM/nms_sampling/cyanomethane_geom.xyz.dir/cyanomethane_3250.chk
%nproc=8
%mem=16000MB
#p B2PLYPD3/Def2QZVP 

cyanomethane

0 1
C  -6.590772  -1.131435   1.199318
C  -5.204307  -0.729952   0.872401
N  -4.108860  -0.569200   0.718613
H  -6.737739  -1.257042   2.170185
H  -6.772385  -2.150597   0.604012
H  -7.184232  -0.269501   0.715083

