%chk=/home/boittier/MDCM/nms_sampling/cyanomethane_geom.xyz.dir/cyanomethane_111.chk
%nproc=8
%mem=16000MB
#p B2PLYPD3/Def2QZVP 

cyanomethane

0 1
C  -6.598673  -1.114478   1.163738
C  -5.197903  -0.775951   0.909792
N  -4.091481  -0.547280   0.700621
H  -6.769479  -1.253259   2.224366
H  -6.843572  -2.045517   0.672434
H  -7.309570  -0.333509   0.815595

