%chk=/home/boittier/MDCM/nms_sampling/cyanomethane_geom.xyz.dir/cyanomethane_514.chk
%nproc=8
%mem=16000MB
#p B2PLYPD3/Def2QZVP 

cyanomethane

0 1
C  -6.596051  -1.115689   1.171326
C  -5.204244  -0.785491   0.912790
N  -4.096233  -0.539430   0.697330
H  -6.702838  -1.245741   2.195773
H  -6.885165  -2.054650   0.651659
H  -7.222395  -0.307947   0.791245
