%chk=/home/boittier/MDCM/nms_sampling/cyanomethane_geom.xyz.dir/cyanomethane_658.chk
%nproc=8
%mem=16000MB
#p B2PLYPD3/Def2QZVP 

cyanomethane

0 1
C  -6.601248  -1.111416   1.169154
C  -5.198236  -0.804227   0.889097
N  -4.090926  -0.531834   0.711941
H  -6.779978  -1.217322   2.240233
H  -6.855188  -2.011010   0.688347
H  -7.260789  -0.328696   0.817308
