%chk=/home/boittier/MDCM/nms_sampling/cyanomethane_geom.xyz.dir/cyanomethane_275.chk
%nproc=8
%mem=16000MB
#p B2PLYPD3/Def2QZVP 

cyanomethane

0 1
C  -6.608813  -1.113620   1.169711
C  -5.198344  -0.776998   0.906840
N  -4.089663  -0.545045   0.700990
H  -6.714901  -1.261022   2.243817
H  -6.862138  -2.072192   0.644208
H  -7.243514  -0.325245   0.788162
