%chk=/home/boittier/MDCM/nms_sampling/cyanomethane_geom.xyz.dir/cyanomethane_3542.chk
%nproc=8
%mem=16000MB
#p B2PLYPD3/Def2QZVP 

cyanomethane

0 1
C  -6.581036  -1.105662   1.171540
C  -5.204598  -0.770362   0.878923
N  -4.106872  -0.550675   0.715044
H  -6.713207  -1.354318   2.308835
H  -6.834069  -2.041261   0.604930
H  -7.292966  -0.355269   0.868225

