%chk=/home/boittier/MDCM/nms_sampling/cyanomethane_geom.xyz.dir/cyanomethane_1808.chk
%nproc=8
%mem=16000MB
#p B2PLYPD3/Def2QZVP 

cyanomethane

0 1
C  -6.601142  -1.126496   1.151535
C  -5.199735  -0.776064   0.942845
N  -4.085616  -0.543806   0.683894
H  -6.768836  -1.179707   2.240259
H  -6.912818  -2.026911   0.691449
H  -7.272401  -0.328027   0.769034
