%chk=/home/boittier/MDCM/nms_sampling/cyanomethane_geom.xyz.dir/cyanomethane_752.chk
%nproc=8
%mem=16000MB
#p B2PLYPD3/Def2QZVP 

cyanomethane

0 1
C  -6.588240  -1.120718   1.174241
C  -5.202435  -0.774868   0.903738
N  -4.099177  -0.545789   0.702575
H  -6.746402  -1.231671   2.229977
H  -6.876459  -2.053825   0.639329
H  -7.263298  -0.306905   0.770462
