%chk=/home/boittier/MDCM/nms_sampling/cyanomethane_geom.xyz.dir/cyanomethane_2942.chk
%nproc=8
%mem=16000MB
#p B2PLYPD3/Def2QZVP 

cyanomethane

0 1
C  -6.627981  -1.097267   1.192043
C  -5.195494  -0.854676   0.906771
N  -4.078891  -0.500867   0.699426
H  -6.675191  -1.187874   2.212602
H  -6.985030  -2.101495   0.591057
H  -7.114874  -0.254056   0.672008
