%chk=/home/boittier/MDCM/nms_sampling/cyanomethane_geom.xyz.dir/cyanomethane_11.chk
%nproc=8
%mem=16000MB
#p B2PLYPD3/Def2QZVP 

cyanomethane

0 1
C  -6.590478  -1.118095   1.168582
C  -5.203036  -0.790668   0.893740
N  -4.098322  -0.536617   0.711443
H  -6.821102  -1.212470   2.255104
H  -6.854954  -2.036074   0.668941
H  -7.188677  -0.320150   0.784721
