%chk=/home/boittier/MDCM/nms_sampling/cyanomethane_geom.xyz.dir/cyanomethane_1300.chk
%nproc=8
%mem=16000MB
#p B2PLYPD3/Def2QZVP 

cyanomethane

0 1
C  -6.612050  -1.125547   1.175774
C  -5.195712  -0.793438   0.869449
N  -4.088856  -0.535184   0.721966
H  -6.774932  -1.165983   2.235814
H  -6.857768  -1.989820   0.718948
H  -7.191608  -0.326562   0.803283
