%chk=/home/boittier/MDCM/nms_sampling/cyanomethane_geom.xyz.dir/cyanomethane_1908.chk
%nproc=8
%mem=16000MB
#p B2PLYPD3/Def2QZVP 

cyanomethane

0 1
C  -6.607676  -1.116100   1.172206
C  -5.196739  -0.826936   0.903652
N  -4.088995  -0.516524   0.701143
H  -6.687178  -1.180121   2.196503
H  -6.955978  -1.998809   0.688818
H  -7.218430  -0.260974   0.809699
