%chk=/home/boittier/MDCM/nms_sampling/cyanomethane_geom.xyz.dir/cyanomethane_2513.chk
%nproc=8
%mem=16000MB
#p B2PLYPD3/Def2QZVP 

cyanomethane

0 1
C  -6.567182  -1.113266   1.185427
C  -5.214023  -0.840944   0.922787
N  -4.104005  -0.510860   0.687740
H  -6.644204  -1.083503   2.206110
H  -6.997529  -1.955232   0.643435
H  -7.295664  -0.352535   0.654455

