%chk=/home/boittier/MDCM/nms_sampling/cyanomethane_geom.xyz.dir/cyanomethane_3051.chk
%nproc=8
%mem=16000MB
#p B2PLYPD3/Def2QZVP 

cyanomethane

0 1
C  -6.579308  -1.133141   1.137995
C  -5.198742  -0.773459   0.976434
N  -4.101976  -0.539402   0.664937
H  -6.727209  -1.209881   2.217714
H  -7.059948  -2.019506   0.689432
H  -7.211107  -0.298276   0.814009

