%chk=/home/boittier/MDCM/nms_sampling/cyanomethane_geom.xyz.dir/cyanomethane_1459.chk
%nproc=8
%mem=16000MB
#p B2PLYPD3/Def2QZVP 

cyanomethane

0 1
C  -6.604460  -1.115637   1.152022
C  -5.196616  -0.765005   0.911361
N  -4.088943  -0.551646   0.702009
H  -6.809247  -1.255323   2.250897
H  -6.841796  -2.028656   0.714476
H  -7.253766  -0.404739   0.837430

