%chk=/home/boittier/MDCM/nms_sampling/cyanomethane_geom.xyz.dir/cyanomethane_2521.chk
%nproc=8
%mem=16000MB
#p B2PLYPD3/Def2QZVP 

cyanomethane

0 1
C  -6.590395  -1.094865   1.166653
C  -5.205582  -0.855815   0.906887
N  -4.100777  -0.503329   0.707637
H  -6.852446  -1.208724   2.191184
H  -6.827802  -2.045430   0.672011
H  -7.120196  -0.272026   0.791192
