%chk=/home/boittier/MDCM/nms_sampling/cyanomethane_geom.xyz.dir/cyanomethane_1685.chk
%nproc=8
%mem=16000MB
#p B2PLYPD3/Def2QZVP 

cyanomethane

0 1
C  -6.601941  -1.127157   1.168204
C  -5.200891  -0.755598   0.898511
N  -4.097785  -0.558612   0.705684
H  -6.704896  -1.185130   2.239752
H  -6.768949  -2.077731   0.713674
H  -7.284928  -0.319887   0.766295
