%chk=/home/boittier/MDCM/nms_sampling/cyanomethane_geom.xyz.dir/cyanomethane_3356.chk
%nproc=8
%mem=16000MB
#p B2PLYPD3/Def2QZVP 

cyanomethane

0 1
C  -6.620856  -1.106404   1.185079
C  -5.190453  -0.823671   0.915541
N  -4.082743  -0.520520   0.694986
H  -6.692072  -1.187910   2.284041
H  -6.924002  -2.091922   0.563272
H  -7.254193  -0.253517   0.662270

