%chk=/home/boittier/MDCM/nms_sampling/cyanomethane_geom.xyz.dir/cyanomethane_1455.chk
%nproc=8
%mem=16000MB
#p B2PLYPD3/Def2QZVP 

cyanomethane

0 1
C  -6.586494  -1.117104   1.152658
C  -5.201201  -0.814766   0.926349
N  -4.097670  -0.522151   0.693156
H  -6.779389  -1.183491   2.232013
H  -6.955130  -1.996231   0.712655
H  -7.209009  -0.309093   0.818814

