%chk=/home/boittier/MDCM/nms_sampling/cyanomethane_geom.xyz.dir/cyanomethane_606.chk
%nproc=8
%mem=16000MB
#p B2PLYPD3/Def2QZVP 

cyanomethane

0 1
C  -6.591106  -1.114641   1.169533
C  -5.201623  -0.791321   0.896352
N  -4.095803  -0.537841   0.709568
H  -6.818643  -1.226203   2.254498
H  -6.848104  -2.054695   0.656077
H  -7.242496  -0.302901   0.783718

