%chk=/home/boittier/MDCM/nms_sampling/cyanomethane_geom.xyz.dir/cyanomethane_2510.chk
%nproc=8
%mem=16000MB
#p B2PLYPD3/Def2QZVP 

cyanomethane

0 1
C  -6.598044  -1.133125   1.181231
C  -5.210569  -0.781817   0.829129
N  -4.099500  -0.536794   0.744000
H  -6.768094  -1.254182   2.288618
H  -6.860025  -1.967191   0.675047
H  -7.034879  -0.280200   0.900925
