%chk=/home/boittier/MDCM/nms_sampling/cyanomethane_geom.xyz.dir/cyanomethane_1853.chk
%nproc=8
%mem=16000MB
#p B2PLYPD3/Def2QZVP 

cyanomethane

0 1
C  -6.606924  -1.116764   1.161171
C  -5.197031  -0.794509   0.886036
N  -4.092104  -0.538424   0.718084
H  -6.859956  -1.179870   2.222366
H  -6.735538  -2.030686   0.748511
H  -7.229453  -0.316960   0.820928

