%chk=/home/boittier/MDCM/nms_sampling/cyanomethane_geom.xyz.dir/cyanomethane_72.chk
%nproc=8
%mem=16000MB
#p B2PLYPD3/Def2QZVP 

cyanomethane

0 1
C  -6.595710  -1.122768   1.161036
C  -5.202336  -0.787642   0.927403
N  -4.091768  -0.538585   0.692001
H  -6.768200  -1.184813   2.232160
H  -6.877872  -2.014493   0.667464
H  -7.256355  -0.316732   0.765655
