%chk=/home/boittier/MDCM/nms_sampling/cyanomethane_geom.xyz.dir/cyanomethane_1070.chk
%nproc=8
%mem=16000MB
#p B2PLYPD3/Def2QZVP 

cyanomethane

0 1
C  -6.591570  -1.104322   1.170064
C  -5.201376  -0.810605   0.910127
N  -4.097066  -0.528228   0.701119
H  -6.775218  -1.243819   2.218354
H  -6.864987  -2.051022   0.641298
H  -7.248826  -0.307756   0.785353

