%chk=/home/boittier/MDCM/nms_sampling/cyanomethane_geom.xyz.dir/cyanomethane_1247.chk
%nproc=8
%mem=16000MB
#p B2PLYPD3/Def2QZVP 

cyanomethane

0 1
C  -6.596722  -1.122699   1.180565
C  -5.197889  -0.758872   0.884350
N  -4.090968  -0.553914   0.710361
H  -6.733105  -1.277750   2.242924
H  -6.919510  -2.024125   0.621813
H  -7.300483  -0.343447   0.808882
