%chk=/home/boittier/MDCM/nms_sampling/cyanomethane_geom.xyz.dir/cyanomethane_1734.chk
%nproc=8
%mem=16000MB
#p B2PLYPD3/Def2QZVP 

cyanomethane

0 1
C  -6.595084  -1.100046   1.167331
C  -5.202528  -0.824580   0.906410
N  -4.089311  -0.520675   0.704129
H  -6.802157  -1.237799   2.301270
H  -6.893866  -2.060480   0.620410
H  -7.247108  -0.296689   0.769279
