%chk=/home/boittier/MDCM/nms_sampling/cyanomethane_geom.xyz.dir/cyanomethane_2873.chk
%nproc=8
%mem=16000MB
#p B2PLYPD3/Def2QZVP 

cyanomethane

0 1
C  -6.604087  -1.095746   1.161319
C  -5.193648  -0.854447   0.909242
N  -4.084401  -0.503626   0.706377
H  -6.896688  -1.204806   2.357343
H  -6.920064  -2.036916   0.609015
H  -7.196070  -0.287909   0.749570

