%chk=/home/boittier/MDCM/nms_sampling/cyanomethane_geom.xyz.dir/cyanomethane_3319.chk
%nproc=8
%mem=16000MB
#p B2PLYPD3/Def2QZVP 

cyanomethane

0 1
C  -6.607521  -1.124789   1.159707
C  -5.197071  -0.841701   0.905534
N  -4.080750  -0.507250   0.706120
H  -6.846876  -1.040580   2.307171
H  -6.965826  -1.971526   0.740931
H  -7.167019  -0.298962   0.719860
