%chk=/home/boittier/MDCM/nms_sampling/cyanomethane_geom.xyz.dir/cyanomethane_3530.chk
%nproc=8
%mem=16000MB
#p B2PLYPD3/Def2QZVP 

cyanomethane

0 1
C  -6.620771  -1.120137   1.156665
C  -5.198852  -0.768157   0.971621
N  -4.080819  -0.541661   0.666259
H  -6.667012  -1.288212   2.148623
H  -7.018958  -2.110847   0.622318
H  -7.104993  -0.300468   0.772115

