%chk=/home/boittier/MDCM/nms_sampling/cyanomethane_geom.xyz.dir/cyanomethane_909.chk
%nproc=8
%mem=16000MB
#p B2PLYPD3/Def2QZVP 

cyanomethane

0 1
C  -6.590421  -1.110481   1.168755
C  -5.202552  -0.811364   0.906117
N  -4.099109  -0.526429   0.701360
H  -6.718581  -1.211151   2.230675
H  -6.906627  -2.033704   0.675889
H  -7.234403  -0.306932   0.793412
