%chk=/home/boittier/MDCM/nms_sampling/cyanomethane_geom.xyz.dir/cyanomethane_116.chk
%nproc=8
%mem=16000MB
#p B2PLYPD3/Def2QZVP 

cyanomethane

0 1
C  -6.600031  -1.114853   1.167153
C  -5.201036  -0.804874   0.911295
N  -4.095239  -0.528269   0.701045
H  -6.765505  -1.213832   2.214673
H  -6.881474  -2.042302   0.664779
H  -7.168765  -0.290619   0.786471

