%chk=/home/boittier/MDCM/nms_sampling/cyanomethane_geom.xyz.dir/cyanomethane_1533.chk
%nproc=8
%mem=16000MB
#p B2PLYPD3/Def2QZVP 

cyanomethane

0 1
C  -6.597596  -1.134827   1.170849
C  -5.201231  -0.744550   0.898443
N  -4.098524  -0.561902   0.705511
H  -6.732001  -1.192279   2.187064
H  -6.812014  -2.050155   0.715253
H  -7.251245  -0.329570   0.782308
