%chk=/home/boittier/MDCM/nms_sampling/cyanomethane_geom.xyz.dir/cyanomethane_334.chk
%nproc=8
%mem=16000MB
#p B2PLYPD3/Def2QZVP 

cyanomethane

0 1
C  -6.602216  -1.115100   1.177652
C  -5.199020  -0.795819   0.883056
N  -4.092311  -0.535971   0.714563
H  -6.770416  -1.201491   2.215733
H  -6.843415  -2.051928   0.686853
H  -7.240433  -0.305659   0.780302

