%chk=/home/boittier/MDCM/nms_sampling/cyanomethane_geom.xyz.dir/cyanomethane_364.chk
%nproc=8
%mem=16000MB
#p B2PLYPD3/Def2QZVP 

cyanomethane

0 1
C  -6.594763  -1.110217   1.160731
C  -5.202621  -0.808837   0.918845
N  -4.098592  -0.528955   0.697404
H  -6.757541  -1.208963   2.200513
H  -6.829825  -2.029108   0.693258
H  -7.226409  -0.309413   0.804669

