%chk=/home/boittier/MDCM/nms_sampling/cyanomethane_geom.xyz.dir/cyanomethane_861.chk
%nproc=8
%mem=16000MB
#p B2PLYPD3/Def2QZVP 

cyanomethane

0 1
C  -6.593156  -1.115314   1.171004
C  -5.202552  -0.788321   0.924761
N  -4.098148  -0.538797   0.691130
H  -6.708343  -1.221578   2.211748
H  -6.878965  -2.042612   0.630087
H  -7.253750  -0.323516   0.748981
