%chk=/home/boittier/MDCM/nms_sampling/cyanomethane_geom.xyz.dir/cyanomethane_1780.chk
%nproc=8
%mem=16000MB
#p B2PLYPD3/Def2QZVP 

cyanomethane

0 1
C  -6.608451  -1.110383   1.169163
C  -5.196721  -0.806817   0.892399
N  -4.088012  -0.529777   0.714419
H  -6.873401  -1.217285   2.220030
H  -6.805638  -2.061849   0.675418
H  -7.188361  -0.284788   0.790777

