%chk=/home/boittier/MDCM/nms_sampling/cyanomethane_geom.xyz.dir/cyanomethane_1182.chk
%nproc=8
%mem=16000MB
#p B2PLYPD3/Def2QZVP 

cyanomethane

0 1
C  -6.595569  -1.116920   1.173797
C  -5.199775  -0.794091   0.914214
N  -4.094490  -0.535083   0.697542
H  -6.752007  -1.213774   2.239796
H  -6.899442  -2.039015   0.616925
H  -7.245452  -0.302053   0.744230
