%chk=/home/boittier/MDCM/nms_sampling/cyanomethane_geom.xyz.dir/cyanomethane_3460.chk
%nproc=8
%mem=16000MB
#p B2PLYPD3/Def2QZVP 

cyanomethane

0 1
C  -6.576900  -1.133670   1.159003
C  -5.212521  -0.787398   0.962885
N  -4.100778  -0.532074   0.674320
H  -6.777027  -1.186138   2.248666
H  -6.975895  -1.997084   0.568851
H  -7.128947  -0.273601   0.712010
