%chk=/home/boittier/MDCM/nms_sampling/cyanomethane_geom.xyz.dir/cyanomethane_2954.chk
%nproc=8
%mem=16000MB
#p B2PLYPD3/Def2QZVP 

cyanomethane

0 1
C  -6.604365  -1.122501   1.170122
C  -5.189780  -0.792752   0.953339
N  -4.087400  -0.534242   0.670787
H  -6.635906  -1.160905   2.160426
H  -7.043456  -1.959097   0.651349
H  -7.331807  -0.390341   0.719361
