%chk=/home/boittier/MDCM/nms_sampling/cyanomethane_geom.xyz.dir/cyanomethane_3094.chk
%nproc=8
%mem=16000MB
#p B2PLYPD3/Def2QZVP 

cyanomethane

0 1
C  -6.593961  -1.109406   1.162387
C  -5.211284  -0.769658   0.883694
N  -4.098584  -0.552677   0.713249
H  -6.679515  -1.275956   2.206946
H  -6.757167  -2.080816   0.756656
H  -7.279200  -0.346679   0.883983

