%chk=/home/boittier/MDCM/nms_sampling/cyanomethane_geom.xyz.dir/cyanomethane_873.chk
%nproc=8
%mem=16000MB
#p B2PLYPD3/Def2QZVP 

cyanomethane

0 1
C  -6.597818  -1.113511   1.161017
C  -5.197918  -0.780450   0.913855
N  -4.092090  -0.544172   0.699205
H  -6.785404  -1.247194   2.227542
H  -6.854578  -2.025035   0.675112
H  -7.285150  -0.359766   0.813316
