%chk=/home/boittier/MDCM/nms_sampling/cyanomethane_geom.xyz.dir/cyanomethane_2434.chk
%nproc=8
%mem=16000MB
#p B2PLYPD3/Def2QZVP 

cyanomethane

0 1
C  -6.596037  -1.098600   1.163821
C  -5.210961  -0.817948   0.953115
N  -4.100162  -0.528498   0.674779
H  -6.592205  -1.210169   2.132293
H  -6.766839  -1.994909   0.663056
H  -7.319187  -0.369094   0.766390

