%chk=/home/boittier/MDCM/nms_sampling/cyanomethane_geom.xyz.dir/cyanomethane_2280.chk
%nproc=8
%mem=16000MB
#p B2PLYPD3/Def2QZVP 

cyanomethane

0 1
C  -6.597435  -1.102721   1.172069
C  -5.204651  -0.822857   0.907100
N  -4.097253  -0.523518   0.702213
H  -6.727288  -1.203879   2.171473
H  -6.804337  -2.046376   0.686869
H  -7.243805  -0.299751   0.783585
