%chk=/home/boittier/MDCM/nms_sampling/cyanomethane_geom.xyz.dir/cyanomethane_1617.chk
%nproc=8
%mem=16000MB
#p B2PLYPD3/Def2QZVP 

cyanomethane

0 1
C  -6.609867  -1.113803   1.173527
C  -5.196581  -0.823092   0.908420
N  -4.090962  -0.519202   0.698137
H  -6.659109  -1.201396   2.187009
H  -6.929722  -2.002727   0.668056
H  -7.220944  -0.266783   0.808104

