%chk=/home/boittier/MDCM/nms_sampling/cyanomethane_geom.xyz.dir/cyanomethane_2911.chk
%nproc=8
%mem=16000MB
#p B2PLYPD3/Def2QZVP 

cyanomethane

0 1
C  -6.568936  -1.098140   1.158153
C  -5.202605  -0.801216   0.972444
N  -4.107849  -0.538270   0.666456
H  -6.722300  -1.187819   2.189089
H  -6.840855  -2.089884   0.652911
H  -7.436377  -0.366492   0.680573
