%chk=/home/boittier/MDCM/nms_sampling/cyanomethane_geom.xyz.dir/cyanomethane_3554.chk
%nproc=8
%mem=16000MB
#p B2PLYPD3/Def2QZVP 

cyanomethane

0 1
C  -6.587352  -1.118063   1.174264
C  -5.209189  -0.744263   0.900579
N  -4.102031  -0.565259   0.699658
H  -6.610736  -1.255081   2.146618
H  -6.823798  -2.087821   0.728204
H  -7.337934  -0.379922   0.809850

