%chk=/home/boittier/MDCM/nms_sampling/cyanomethane_geom.xyz.dir/cyanomethane_2594.chk
%nproc=8
%mem=16000MB
#p B2PLYPD3/Def2QZVP 

cyanomethane

0 1
C  -6.587736  -1.128905   1.167513
C  -5.203007  -0.752331   0.901691
N  -4.107536  -0.553445   0.704841
H  -6.748944  -1.298143   2.157071
H  -6.879175  -2.036636   0.669031
H  -7.136267  -0.308680   0.869461
