%chk=/home/boittier/MDCM/nms_sampling/cyanomethane_geom.xyz.dir/cyanomethane_21.chk
%nproc=8
%mem=16000MB
#p B2PLYPD3/Def2QZVP 

cyanomethane

0 1
C  -6.587535  -1.116881   1.174760
C  -5.204654  -0.771546   0.903460
N  -4.096401  -0.548036   0.702984
H  -6.761574  -1.238115   2.228900
H  -6.876487  -2.082542   0.645316
H  -7.268643  -0.325997   0.755865
