%chk=/home/boittier/MDCM/nms_sampling/cyanomethane_geom.xyz.dir/cyanomethane_3135.chk
%nproc=8
%mem=16000MB
#p B2PLYPD3/Def2QZVP 

cyanomethane

0 1
C  -6.593531  -1.124071   1.158436
C  -5.206662  -0.810980   0.910436
N  -4.106092  -0.519840   0.702108
H  -6.718062  -1.206156   2.237927
H  -6.933012  -2.045157   0.696075
H  -7.021116  -0.228247   0.834077
