%chk=/home/boittier/MDCM/nms_sampling/cyanomethane_geom.xyz.dir/cyanomethane_2028.chk
%nproc=8
%mem=16000MB
#p B2PLYPD3/Def2QZVP 

cyanomethane

0 1
C  -6.592826  -1.129757   1.162302
C  -5.206234  -0.751155   0.909058
N  -4.097887  -0.556931   0.702625
H  -6.771034  -1.225244   2.250686
H  -6.830147  -2.109842   0.682685
H  -7.200359  -0.279055   0.780805
