%chk=/home/boittier/MDCM/nms_sampling/cyanomethane_geom.xyz.dir/cyanomethane_1963.chk
%nproc=8
%mem=16000MB
#p B2PLYPD3/Def2QZVP 

cyanomethane

0 1
C  -6.595137  -1.112397   1.153004
C  -5.206095  -0.821214   0.918841
N  -4.097677  -0.520328   0.697498
H  -6.737694  -1.209728   2.191184
H  -6.864532  -1.982368   0.726765
H  -7.176845  -0.300532   0.867377
