%chk=/home/boittier/MDCM/nms_sampling/cyanomethane_geom.xyz.dir/cyanomethane_1446.chk
%nproc=8
%mem=16000MB
#p B2PLYPD3/Def2QZVP 

cyanomethane

0 1
C  -6.594811  -1.116188   1.173564
C  -5.207836  -0.793739   0.927592
N  -4.097997  -0.534484   0.689290
H  -6.667721  -1.205126   2.239843
H  -6.893363  -2.085879   0.612823
H  -7.198349  -0.281856   0.710270

