%chk=/home/boittier/MDCM/nms_sampling/cyanomethane_geom.xyz.dir/cyanomethane_96.chk
%nproc=8
%mem=16000MB
#p B2PLYPD3/Def2QZVP 

cyanomethane

0 1
C  -6.596248  -1.118567   1.163943
C  -5.204676  -0.783099   0.925923
N  -4.094935  -0.540246   0.691218
H  -6.709791  -1.244073   2.207227
H  -6.885774  -2.042372   0.648929
H  -7.225864  -0.301007   0.799116

