%chk=/home/boittier/MDCM/nms_sampling/cyanomethane_geom.xyz.dir/cyanomethane_3304.chk
%nproc=8
%mem=16000MB
#p B2PLYPD3/Def2QZVP 

cyanomethane

0 1
C  -6.604338  -1.102986   1.174979
C  -5.189205  -0.800121   0.956714
N  -4.084507  -0.534838   0.675165
H  -6.789682  -1.227349   2.166880
H  -6.912416  -2.114493   0.571636
H  -7.356466  -0.295922   0.664498
