%chk=/home/boittier/MDCM/nms_sampling/cyanomethane_geom.xyz.dir/cyanomethane_942.chk
%nproc=8
%mem=16000MB
#p B2PLYPD3/Def2QZVP 

cyanomethane

0 1
C  -6.600283  -1.111409   1.176157
C  -5.199519  -0.796228   0.880397
N  -4.091800  -0.534232   0.715397
H  -6.762790  -1.250311   2.238311
H  -6.895959  -2.053733   0.666299
H  -7.219536  -0.310514   0.813934

