%chk=/home/boittier/MDCM/nms_sampling/cyanomethane_geom.xyz.dir/cyanomethane_925.chk
%nproc=8
%mem=16000MB
#p B2PLYPD3/Def2QZVP 

cyanomethane

0 1
C  -6.605243  -1.114216   1.167749
C  -5.200948  -0.803727   0.904578
N  -4.089482  -0.529270   0.705533
H  -6.796688  -1.206861   2.231038
H  -6.870212  -2.059399   0.671693
H  -7.167762  -0.292076   0.775631
