%chk=/home/boittier/MDCM/nms_sampling/cyanomethane_geom.xyz.dir/cyanomethane_2766.chk
%nproc=8
%mem=16000MB
#p B2PLYPD3/Def2QZVP 

cyanomethane

0 1
C  -6.607996  -1.117804   1.181007
C  -5.194260  -0.748075   0.919570
N  -4.083848  -0.561202   0.691358
H  -6.695437  -1.276886   2.252498
H  -6.910659  -2.192809   0.577114
H  -7.353464  -0.253430   0.701621
