%chk=/home/boittier/MDCM/nms_sampling/cyanomethane_geom.xyz.dir/cyanomethane_2051.chk
%nproc=8
%mem=16000MB
#p B2PLYPD3/Def2QZVP 

cyanomethane

0 1
C  -6.594743  -1.109388   1.173486
C  -5.197626  -0.824824   0.909751
N  -4.094230  -0.516810   0.699726
H  -6.756735  -1.241320   2.252754
H  -6.976755  -1.989275   0.592989
H  -7.203198  -0.295241   0.788907

