%chk=/home/boittier/MDCM/nms_sampling/cyanomethane_geom.xyz.dir/cyanomethane_1489.chk
%nproc=8
%mem=16000MB
#p B2PLYPD3/Def2QZVP 

cyanomethane

0 1
C  -6.586296  -1.117044   1.171780
C  -5.208213  -0.806900   0.885607
N  -4.099000  -0.526194   0.714832
H  -6.789727  -1.206481   2.287846
H  -6.909861  -2.050655   0.659039
H  -7.143138  -0.277199   0.783075

