%chk=/home/boittier/MDCM/nms_sampling/cyanomethane_geom.xyz.dir/cyanomethane_1707.chk
%nproc=8
%mem=16000MB
#p B2PLYPD3/Def2QZVP 

cyanomethane

0 1
C  -6.592169  -1.104228   1.168087
C  -5.206496  -0.799399   0.936520
N  -4.099427  -0.535294   0.685853
H  -6.688508  -1.239645   2.246033
H  -6.827852  -2.099265   0.601007
H  -7.272221  -0.293869   0.723874
