%chk=/home/boittier/MDCM/nms_sampling/cyanomethane_geom.xyz.dir/cyanomethane_193.chk
%nproc=8
%mem=16000MB
#p B2PLYPD3/Def2QZVP 

cyanomethane

0 1
C  -6.596105  -1.106079   1.168321
C  -5.202290  -0.811121   0.898095
N  -4.097444  -0.527629   0.705740
H  -6.712025  -1.226864   2.213666
H  -6.874084  -2.040160   0.701642
H  -7.230664  -0.325531   0.818755
