%chk=/home/boittier/MDCM/nms_sampling/cyanomethane_geom.xyz.dir/cyanomethane_578.chk
%nproc=8
%mem=16000MB
#p B2PLYPD3/Def2QZVP 

cyanomethane

0 1
C  -6.596403  -1.121679   1.167281
C  -5.201926  -0.776615   0.907375
N  -4.097252  -0.544429   0.700892
H  -6.719833  -1.234856   2.215481
H  -6.862598  -2.036758   0.670924
H  -7.237494  -0.306731   0.810826
