%chk=/home/boittier/MDCM/nms_sampling/cyanomethane_geom.xyz.dir/cyanomethane_2511.chk
%nproc=8
%mem=16000MB
#p B2PLYPD3/Def2QZVP 

cyanomethane

0 1
C  -6.595725  -1.112286   1.176707
C  -5.202843  -0.760377   0.897015
N  -4.107321  -0.560600   0.705899
H  -6.668023  -1.262068   2.249522
H  -6.664048  -2.080869   0.622533
H  -7.346749  -0.321936   0.767250

