%chk=/home/boittier/MDCM/nms_sampling/cyanomethane_geom.xyz.dir/cyanomethane_176.chk
%nproc=8
%mem=16000MB
#p B2PLYPD3/Def2QZVP 

cyanomethane

0 1
C  -6.602476  -1.115671   1.162325
C  -5.201654  -0.803268   0.910119
N  -4.091082  -0.529340   0.700534
H  -6.738888  -1.202952   2.215951
H  -6.902946  -2.026415   0.707637
H  -7.194761  -0.316511   0.811191

