%chk=/home/boittier/MDCM/nms_sampling/cyanomethane_geom.xyz.dir/cyanomethane_804.chk
%nproc=8
%mem=16000MB
#p B2PLYPD3/Def2QZVP 

cyanomethane

0 1
C  -6.595279  -1.111372   1.156721
C  -5.202231  -0.788013   0.925421
N  -4.098520  -0.538443   0.693754
H  -6.747005  -1.260971   2.236254
H  -6.856715  -2.064019   0.663519
H  -7.209297  -0.314780   0.813863

