%chk=/home/boittier/MDCM/nms_sampling/cyanomethane_geom.xyz.dir/cyanomethane_396.chk
%nproc=8
%mem=16000MB
#p B2PLYPD3/Def2QZVP 

cyanomethane

0 1
C  -6.602582  -1.115516   1.169954
C  -5.201922  -0.782872   0.920951
N  -4.091671  -0.541928   0.693768
H  -6.714944  -1.231334   2.229620
H  -6.860617  -2.072224   0.631283
H  -7.249493  -0.304331   0.752294

