%chk=/home/boittier/MDCM/nms_sampling/cyanomethane_geom.xyz.dir/cyanomethane_2196.chk
%nproc=8
%mem=16000MB
#p B2PLYPD3/Def2QZVP 

cyanomethane

0 1
C  -6.604968  -1.103846   1.162349
C  -5.196146  -0.799455   0.944509
N  -4.089808  -0.536847   0.680484
H  -6.692900  -1.219385   2.170635
H  -6.845129  -2.056568   0.671511
H  -7.354408  -0.342966   0.760441
