%chk=/home/boittier/MDCM/nms_sampling/cyanomethane_geom.xyz.dir/cyanomethane_2156.chk
%nproc=8
%mem=16000MB
#p B2PLYPD3/Def2QZVP 

cyanomethane

0 1
C  -6.583397  -1.107918   1.153691
C  -5.205362  -0.801342   0.897219
N  -4.095917  -0.532930   0.710785
H  -6.854265  -1.231588   2.238916
H  -6.857983  -2.022224   0.743771
H  -7.242635  -0.361874   0.859394
