%chk=/home/boittier/MDCM/nms_sampling/cyanomethane_geom.xyz.dir/cyanomethane_582.chk
%nproc=8
%mem=16000MB
#p B2PLYPD3/Def2QZVP 

cyanomethane

0 1
C  -6.595002  -1.114705   1.169230
C  -5.202150  -0.778848   0.903161
N  -4.096717  -0.546719   0.703534
H  -6.735543  -1.234876   2.219225
H  -6.803676  -2.058262   0.673475
H  -7.303135  -0.314948   0.796376
