%chk=/home/boittier/MDCM/nms_sampling/cyanomethane_geom.xyz.dir/cyanomethane_1641.chk
%nproc=8
%mem=16000MB
#p B2PLYPD3/Def2QZVP 

cyanomethane

0 1
C  -6.593286  -1.107928   1.159436
C  -5.207950  -0.776531   0.933534
N  -4.097862  -0.547035   0.688977
H  -6.717465  -1.279305   2.236221
H  -6.799525  -2.128784   0.637051
H  -7.260092  -0.287391   0.781038
