%chk=/home/boittier/MDCM/nms_sampling/cyanomethane_geom.xyz.dir/cyanomethane_2760.chk
%nproc=8
%mem=16000MB
#p B2PLYPD3/Def2QZVP 

cyanomethane

0 1
C  -6.569701  -1.124772   1.143598
C  -5.212439  -0.740210   0.921364
N  -4.104698  -0.566863   0.698875
H  -6.847499  -1.276646   2.301060
H  -6.745550  -1.990196   0.668175
H  -7.321981  -0.391911   0.855657
