%chk=/home/boittier/MDCM/nms_sampling/cyanomethane_geom.xyz.dir/cyanomethane_3212.chk
%nproc=8
%mem=16000MB
#p B2PLYPD3/Def2QZVP 

cyanomethane

0 1
C  -6.584393  -1.123064   1.189655
C  -5.202841  -0.748399   0.869288
N  -4.107426  -0.561960   0.718281
H  -6.688426  -1.232577   2.275740
H  -6.828317  -2.168983   0.645195
H  -7.293733  -0.269118   0.725731
