%chk=/home/boittier/MDCM/nms_sampling/cyanomethane_geom.xyz.dir/cyanomethane_43.chk
%nproc=8
%mem=16000MB
#p B2PLYPD3/Def2QZVP 

cyanomethane

0 1
C  -6.595512  -1.105393   1.170171
C  -5.205121  -0.812961   0.905635
N  -4.096299  -0.526595   0.702106
H  -6.718273  -1.239552   2.214359
H  -6.862631  -2.018686   0.657079
H  -7.226194  -0.328115   0.805803
