%chk=/home/boittier/MDCM/nms_sampling/cyanomethane_geom.xyz.dir/cyanomethane_520.chk
%nproc=8
%mem=16000MB
#p B2PLYPD3/Def2QZVP 

cyanomethane

0 1
C  -6.599448  -1.109748   1.170076
C  -5.200239  -0.773922   0.905393
N  -4.090116  -0.548136   0.702379
H  -6.762638  -1.289168   2.218826
H  -6.849320  -2.065749   0.638984
H  -7.292065  -0.340219   0.808323

