%chk=/home/boittier/MDCM/nms_sampling/cyanomethane_geom.xyz.dir/cyanomethane_1438.chk
%nproc=8
%mem=16000MB
#p B2PLYPD3/Def2QZVP 

cyanomethane

0 1
C  -6.582511  -1.107969   1.151788
C  -5.205460  -0.793804   0.927552
N  -4.097497  -0.534872   0.693838
H  -6.810612  -1.284239   2.248807
H  -6.902749  -2.051366   0.657493
H  -7.229146  -0.320715   0.840345
