%chk=/home/boittier/MDCM/nms_sampling/cyanomethane_geom.xyz.dir/cyanomethane_2692.chk
%nproc=8
%mem=16000MB
#p B2PLYPD3/Def2QZVP 

cyanomethane

0 1
C  -6.625513  -1.125102   1.185969
C  -5.191933  -0.716881   0.876951
N  -4.080566  -0.576410   0.710984
H  -6.627313  -1.343480   2.231484
H  -6.890492  -2.108068   0.619315
H  -7.302574  -0.348231   0.820312

