%chk=/home/boittier/MDCM/nms_sampling/cyanomethane_geom.xyz.dir/cyanomethane_2728.chk
%nproc=8
%mem=16000MB
#p B2PLYPD3/Def2QZVP 

cyanomethane

0 1
C  -6.591801  -1.117227   1.158288
C  -5.212924  -0.799098   0.847718
N  -4.101087  -0.533971   0.737371
H  -6.800024  -1.257971   2.228641
H  -6.739721  -1.994515   0.789754
H  -7.146130  -0.276863   0.982635
