%chk=/home/boittier/MDCM/nms_sampling/cyanomethane_geom.xyz.dir/cyanomethane_279.chk
%nproc=8
%mem=16000MB
#p B2PLYPD3/Def2QZVP 

cyanomethane

0 1
C  -6.604609  -1.110814   1.169464
C  -5.198953  -0.807673   0.903307
N  -4.091082  -0.528473   0.702987
H  -6.723986  -1.215506   2.204590
H  -6.892670  -2.032068   0.689664
H  -7.226802  -0.316230   0.804116
