%chk=/home/boittier/MDCM/nms_sampling/cyanomethane_geom.xyz.dir/cyanomethane_3276.chk
%nproc=8
%mem=16000MB
#p B2PLYPD3/Def2QZVP 

cyanomethane

0 1
C  -6.572150  -1.098087   1.189790
C  -5.201839  -0.816494   0.832553
N  -4.104707  -0.530675   0.741972
H  -6.864542  -1.199437   2.261617
H  -6.800382  -2.063929   0.716205
H  -7.345821  -0.348144   0.783696

