%chk=/home/boittier/MDCM/nms_sampling/cyanomethane_geom.xyz.dir/cyanomethane_1191.chk
%nproc=8
%mem=16000MB
#p B2PLYPD3/Def2QZVP 

cyanomethane

0 1
C  -6.603324  -1.119749   1.158539
C  -5.198991  -0.776783   0.909472
N  -4.092326  -0.545235   0.701883
H  -6.763942  -1.233864   2.219894
H  -6.832179  -2.035330   0.704895
H  -7.244712  -0.321284   0.834721
