%chk=/home/boittier/MDCM/nms_sampling/cyanomethane_geom.xyz.dir/cyanomethane_2600.chk
%nproc=8
%mem=16000MB
#p B2PLYPD3/Def2QZVP 

cyanomethane

0 1
C  -6.574849  -1.111234   1.163159
C  -5.210375  -0.779060   0.883554
N  -4.102663  -0.547090   0.723612
H  -6.994024  -1.254441   2.266835
H  -6.690378  -2.080374   0.662118
H  -7.220091  -0.309408   0.802302

