%chk=/home/boittier/MDCM/nms_sampling/cyanomethane_geom.xyz.dir/cyanomethane_2092.chk
%nproc=8
%mem=16000MB
#p B2PLYPD3/Def2QZVP 

cyanomethane

0 1
C  -6.592544  -1.118103   1.159371
C  -5.208116  -0.765980   0.930223
N  -4.098174  -0.550512   0.692585
H  -6.781998  -1.259870   2.192906
H  -6.792878  -2.086010   0.655703
H  -7.204239  -0.306174   0.790549
