%chk=/home/boittier/MDCM/nms_sampling/cyanomethane_geom.xyz.dir/cyanomethane_2215.chk
%nproc=8
%mem=16000MB
#p B2PLYPD3/Def2QZVP 

cyanomethane

0 1
C  -6.597486  -1.104908   1.156784
C  -5.205622  -0.806354   0.931187
N  -4.096710  -0.531161   0.688814
H  -6.680099  -1.260731   2.183606
H  -6.828721  -2.025859   0.679764
H  -7.261555  -0.312605   0.846711

