%chk=/home/boittier/MDCM/nms_sampling/cyanomethane_geom.xyz.dir/cyanomethane_3448.chk
%nproc=8
%mem=16000MB
#p B2PLYPD3/Def2QZVP 

cyanomethane

0 1
C  -6.607998  -1.149878   1.171048
C  -5.198670  -0.714475   0.901741
N  -4.083224  -0.578268   0.705207
H  -6.820421  -1.133400   2.146195
H  -6.788539  -2.059832   0.755022
H  -7.305096  -0.339615   0.738604

