%chk=/home/boittier/MDCM/nms_sampling/cyanomethane_geom.xyz.dir/cyanomethane_1481.chk
%nproc=8
%mem=16000MB
#p B2PLYPD3/Def2QZVP 

cyanomethane

0 1
C  -6.586904  -1.127670   1.160666
C  -5.206072  -0.762579   0.911650
N  -4.097387  -0.549818   0.698886
H  -6.748260  -1.220699   2.210340
H  -6.913937  -2.016534   0.711390
H  -7.220343  -0.362573   0.818735
