%chk=/home/boittier/MDCM/nms_sampling/cyanomethane_geom.xyz.dir/cyanomethane_3154.chk
%nproc=8
%mem=16000MB
#p B2PLYPD3/Def2QZVP 

cyanomethane

0 1
C  -6.627911  -1.112890   1.174662
C  -5.197572  -0.748308   0.883906
N  -4.079538  -0.565194   0.709060
H  -6.620837  -1.290473   2.190204
H  -6.762808  -2.014611   0.700517
H  -7.357020  -0.433446   0.852093

