%chk=/home/boittier/MDCM/nms_sampling/cyanomethane_geom.xyz.dir/cyanomethane_2459.chk
%nproc=8
%mem=16000MB
#p B2PLYPD3/Def2QZVP 

cyanomethane

0 1
C  -6.577076  -1.095848   1.167957
C  -5.200713  -0.838721   0.904967
N  -4.099571  -0.517578   0.702001
H  -6.758803  -1.190768   2.233660
H  -6.885587  -2.040800   0.698296
H  -7.392911  -0.301597   0.789337

