%chk=/home/boittier/MDCM/nms_sampling/cyanomethane_geom.xyz.dir/cyanomethane_2599.chk
%nproc=8
%mem=16000MB
#p B2PLYPD3/Def2QZVP 

cyanomethane

0 1
C  -6.618363  -1.111663   1.145546
C  -5.193464  -0.777172   0.952988
N  -4.088032  -0.541937   0.681881
H  -6.791540  -1.338779   2.153296
H  -6.843533  -2.054352   0.642973
H  -7.149620  -0.299546   0.882102

