%chk=/home/boittier/MDCM/nms_sampling/cyanomethane_geom.xyz.dir/cyanomethane_2896.chk
%nproc=8
%mem=16000MB
#p B2PLYPD3/Def2QZVP 

cyanomethane

0 1
C  -6.627760  -1.128107   1.173591
C  -5.190403  -0.759730   0.854341
N  -4.082281  -0.550978   0.729802
H  -6.781329  -1.265379   2.166688
H  -6.863291  -2.025846   0.756202
H  -7.140861  -0.332661   0.908938
