%chk=/home/boittier/MDCM/nms_sampling/cyanomethane_geom.xyz.dir/cyanomethane_1332.chk
%nproc=8
%mem=16000MB
#p B2PLYPD3/Def2QZVP 

cyanomethane

0 1
C  -6.595845  -1.119916   1.167010
C  -5.207083  -0.825437   0.910900
N  -4.098572  -0.517230   0.700182
H  -6.709932  -1.119066   2.233334
H  -6.886281  -1.997230   0.705608
H  -7.152159  -0.293325   0.750361
