%chk=/home/boittier/MDCM/nms_sampling/cyanomethane_geom.xyz.dir/cyanomethane_2127.chk
%nproc=8
%mem=16000MB
#p B2PLYPD3/Def2QZVP 

cyanomethane

0 1
C  -6.601795  -1.117250   1.179518
C  -5.195215  -0.798343   0.880154
N  -4.088748  -0.532924   0.716396
H  -6.814701  -1.214841   2.240286
H  -6.903244  -2.037874   0.651823
H  -7.237404  -0.289069   0.782937
