%chk=/home/boittier/MDCM/nms_sampling/cyanomethane_geom.xyz.dir/cyanomethane_2136.chk
%nproc=8
%mem=16000MB
#p B2PLYPD3/Def2QZVP 

cyanomethane

0 1
C  -6.601678  -1.125166   1.174771
C  -5.202666  -0.746626   0.896281
N  -4.091193  -0.559790   0.704991
H  -6.701727  -1.290339   2.228499
H  -6.876251  -2.082028   0.634317
H  -7.252819  -0.303107   0.812510
