%chk=/home/boittier/MDCM/nms_sampling/cyanomethane_geom.xyz.dir/cyanomethane_2387.chk
%nproc=8
%mem=16000MB
#p B2PLYPD3/Def2QZVP 

cyanomethane

0 1
C  -6.585205  -1.118481   1.166508
C  -5.201598  -0.788009   0.938197
N  -4.100240  -0.536654   0.685645
H  -6.763679  -1.206159   2.230376
H  -6.933246  -2.053958   0.618082
H  -7.222940  -0.319065   0.718684
