%chk=/home/boittier/MDCM/nms_sampling/cyanomethane_geom.xyz.dir/cyanomethane_2531.chk
%nproc=8
%mem=16000MB
#p B2PLYPD3/Def2QZVP 

cyanomethane

0 1
C  -6.569534  -1.096129   1.147616
C  -5.211079  -0.860170   0.920544
N  -4.103152  -0.498683   0.700537
H  -6.878601  -1.244974   2.202769
H  -6.930137  -1.946262   0.700922
H  -7.143948  -0.322303   0.897360

