%chk=/home/boittier/MDCM/nms_sampling/cyanomethane_geom.xyz.dir/cyanomethane_1124.chk
%nproc=8
%mem=16000MB
#p B2PLYPD3/Def2QZVP 

cyanomethane

0 1
C  -6.596701  -1.120731   1.165181
C  -5.205405  -0.773672   0.903488
N  -4.096794  -0.545560   0.704261
H  -6.740764  -1.248975   2.231523
H  -6.841450  -2.028530   0.668057
H  -7.199233  -0.330096   0.820499

