%chk=/home/boittier/MDCM/nms_sampling/cyanomethane_geom.xyz.dir/cyanomethane_2719.chk
%nproc=8
%mem=16000MB
#p B2PLYPD3/Def2QZVP 

cyanomethane

0 1
C  -6.599425  -1.105296   1.182244
C  -5.206353  -0.750195   0.883211
N  -4.097378  -0.566230   0.715082
H  -6.757463  -1.310861   2.172813
H  -6.648255  -2.141817   0.645718
H  -7.322050  -0.335277   0.786489
