%chk=/home/boittier/MDCM/nms_sampling/cyanomethane_geom.xyz.dir/cyanomethane_1346.chk
%nproc=8
%mem=16000MB
#p B2PLYPD3/Def2QZVP 

cyanomethane

0 1
C  -6.615998  -1.115211   1.163252
C  -5.195494  -0.795080   0.928209
N  -4.087568  -0.531147   0.690843
H  -6.720103  -1.239195   2.231318
H  -6.940138  -2.055072   0.641253
H  -7.137459  -0.314202   0.776194
