%chk=/home/boittier/MDCM/nms_sampling/cyanomethane_geom.xyz.dir/cyanomethane_162.chk
%nproc=8
%mem=16000MB
#p B2PLYPD3/Def2QZVP 

cyanomethane

0 1
C  -6.588154  -1.123137   1.168806
C  -5.202778  -0.773213   0.900908
N  -4.098041  -0.546189   0.703995
H  -6.745106  -1.232500   2.229773
H  -6.889271  -2.021004   0.669765
H  -7.264219  -0.325923   0.810546
