%chk=/home/boittier/MDCM/nms_sampling/cyanomethane_geom.xyz.dir/cyanomethane_2152.chk
%nproc=8
%mem=16000MB
#p B2PLYPD3/Def2QZVP 

cyanomethane

0 1
C  -6.614766  -1.098818   1.167951
C  -5.194609  -0.833859   0.906152
N  -4.087983  -0.515229   0.703033
H  -6.735656  -1.267928   2.247268
H  -6.874808  -2.015362   0.620666
H  -7.207908  -0.284975   0.829307

