%chk=/home/boittier/MDCM/nms_sampling/cyanomethane_geom.xyz.dir/cyanomethane_388.chk
%nproc=8
%mem=16000MB
#p B2PLYPD3/Def2QZVP 

cyanomethane

0 1
C  -6.597357  -1.123182   1.166002
C  -5.199580  -0.768774   0.913592
N  -4.092483  -0.547867   0.699689
H  -6.797504  -1.221049   2.229451
H  -6.877007  -2.068983   0.663645
H  -7.229615  -0.315643   0.766869

