%chk=/home/boittier/MDCM/nms_sampling/cyanomethane_geom.xyz.dir/cyanomethane_3283.chk
%nproc=8
%mem=16000MB
#p B2PLYPD3/Def2QZVP 

cyanomethane

0 1
C  -6.625727  -1.114102   1.149293
C  -5.196677  -0.821268   0.937647
N  -4.080544  -0.522624   0.690745
H  -6.800470  -1.133125   2.203553
H  -6.773048  -1.963255   0.726569
H  -7.194078  -0.350711   0.776764
