%chk=/home/boittier/MDCM/nms_sampling/cyanomethane_geom.xyz.dir/cyanomethane_1234.chk
%nproc=8
%mem=16000MB
#p B2PLYPD3/Def2QZVP 

cyanomethane

0 1
C  -6.585188  -1.117660   1.155792
C  -5.201800  -0.779774   0.947563
N  -4.097978  -0.541425   0.679413
H  -6.728383  -1.228572   2.192941
H  -6.953051  -2.033723   0.674196
H  -7.266234  -0.355503   0.784116

