%chk=/home/boittier/MDCM/nms_sampling/cyanomethane_geom.xyz.dir/cyanomethane_1377.chk
%nproc=8
%mem=16000MB
#p B2PLYPD3/Def2QZVP 

cyanomethane

0 1
C  -6.600877  -1.107378   1.172825
C  -5.202287  -0.769792   0.886620
N  -4.098883  -0.551157   0.711821
H  -6.700771  -1.310571   2.268990
H  -6.787482  -2.089082   0.634749
H  -7.251431  -0.335682   0.821039

