%chk=/home/boittier/MDCM/nms_sampling/cyanomethane_geom.xyz.dir/cyanomethane_818.chk
%nproc=8
%mem=16000MB
#p B2PLYPD3/Def2QZVP 

cyanomethane

0 1
C  -6.594537  -1.104504   1.162105
C  -5.202720  -0.800122   0.925400
N  -4.098704  -0.533316   0.692073
H  -6.707790  -1.269984   2.225706
H  -6.864183  -2.068782   0.645231
H  -7.241639  -0.308596   0.805829
