%chk=/home/boittier/MDCM/nms_sampling/cyanomethane_geom.xyz.dir/cyanomethane_1311.chk
%nproc=8
%mem=16000MB
#p B2PLYPD3/Def2QZVP 

cyanomethane

0 1
C  -6.594366  -1.101839   1.179828
C  -5.201204  -0.794654   0.878567
N  -4.087721  -0.539726   0.718407
H  -6.850308  -1.256790   2.237527
H  -6.818963  -2.091851   0.648477
H  -7.318529  -0.325744   0.774379
