%chk=/home/boittier/MDCM/nms_sampling/cyanomethane_geom.xyz.dir/cyanomethane_67.chk
%nproc=8
%mem=16000MB
#p B2PLYPD3/Def2QZVP 

cyanomethane

0 1
C  -6.598916  -1.124137   1.161522
C  -5.198464  -0.783543   0.929857
N  -4.090719  -0.539570   0.689900
H  -6.759104  -1.201395   2.230350
H  -6.914737  -2.008035   0.653478
H  -7.251021  -0.320696   0.773190

