%chk=/home/boittier/MDCM/nms_sampling/cyanomethane_geom.xyz.dir/cyanomethane_3539.chk
%nproc=8
%mem=16000MB
#p B2PLYPD3/Def2QZVP 

cyanomethane

0 1
C  -6.605868  -1.098985   1.183824
C  -5.194189  -0.868484   0.902706
N  -4.081681  -0.497106   0.702758
H  -6.755846  -1.142120   2.292996
H  -6.989312  -2.051816   0.603418
H  -7.275808  -0.230572   0.685118
