%chk=/home/boittier/MDCM/nms_sampling/cyanomethane_geom.xyz.dir/cyanomethane_3234.chk
%nproc=8
%mem=16000MB
#p B2PLYPD3/Def2QZVP 

cyanomethane

0 1
C  -6.588868  -1.079508   1.157941
C  -5.213076  -0.800375   0.967341
N  -4.102899  -0.535884   0.667610
H  -6.586777  -1.383585   2.156331
H  -6.835959  -2.163337   0.598773
H  -7.274588  -0.331088   0.808080
