%chk=/home/boittier/MDCM/nms_sampling/cyanomethane_geom.xyz.dir/cyanomethane_522.chk
%nproc=8
%mem=16000MB
#p B2PLYPD3/Def2QZVP 

cyanomethane

0 1
C  -6.606527  -1.112617   1.162184
C  -5.197413  -0.798828   0.926705
N  -4.090546  -0.535138   0.691755
H  -6.729035  -1.209338   2.208999
H  -6.834495  -2.040609   0.672188
H  -7.284053  -0.300928   0.783764

