%chk=/home/boittier/MDCM/nms_sampling/cyanomethane_geom.xyz.dir/cyanomethane_1189.chk
%nproc=8
%mem=16000MB
#p B2PLYPD3/Def2QZVP 

cyanomethane

0 1
C  -6.596067  -1.120271   1.166363
C  -5.202646  -0.771427   0.900720
N  -4.096596  -0.546677   0.706794
H  -6.781790  -1.237168   2.236294
H  -6.847951  -2.080292   0.678913
H  -7.194652  -0.310407   0.793733

