%chk=/home/boittier/MDCM/nms_sampling/cyanomethane_geom.xyz.dir/cyanomethane_32.chk
%nproc=8
%mem=16000MB
#p B2PLYPD3/Def2QZVP 

cyanomethane

0 1
C  -6.597548  -1.112488   1.158736
C  -5.203532  -0.793489   0.918207
N  -4.094936  -0.535889   0.697133
H  -6.747543  -1.228372   2.211583
H  -6.858052  -2.044585   0.700366
H  -7.214186  -0.331572   0.813376

