%chk=/home/boittier/MDCM/nms_sampling/cyanomethane_geom.xyz.dir/cyanomethane_2563.chk
%nproc=8
%mem=16000MB
#p B2PLYPD3/Def2QZVP 

cyanomethane

0 1
C  -6.598055  -1.125254   1.171845
C  -5.194995  -0.755813   0.927541
N  -4.089305  -0.553068   0.685833
H  -6.687163  -1.271302   2.141913
H  -7.004666  -2.029067   0.647715
H  -7.301197  -0.347707   0.806947
