%chk=/home/boittier/MDCM/nms_sampling/cyanomethane_geom.xyz.dir/cyanomethane_586.chk
%nproc=8
%mem=16000MB
#p B2PLYPD3/Def2QZVP 

cyanomethane

0 1
C  -6.588330  -1.114850   1.162409
C  -5.204418  -0.781728   0.913591
N  -4.097613  -0.543588   0.697970
H  -6.734338  -1.227856   2.251961
H  -6.860618  -2.036920   0.675866
H  -7.289334  -0.347910   0.793703
