%chk=/home/boittier/MDCM/nms_sampling/cyanomethane_geom.xyz.dir/cyanomethane_1800.chk
%nproc=8
%mem=16000MB
#p B2PLYPD3/Def2QZVP 

cyanomethane

0 1
C  -6.580487  -1.111383   1.153272
C  -5.203229  -0.786368   0.938257
N  -4.103450  -0.541099   0.687729
H  -6.781434  -1.235119   2.267688
H  -6.848151  -2.074944   0.651119
H  -7.282699  -0.314332   0.772044
