%chk=/home/boittier/MDCM/nms_sampling/cyanomethane_geom.xyz.dir/cyanomethane_1970.chk
%nproc=8
%mem=16000MB
#p B2PLYPD3/Def2QZVP 

cyanomethane

0 1
C  -6.584657  -1.111538   1.179719
C  -5.204520  -0.813286   0.892150
N  -4.100509  -0.523168   0.707817
H  -6.730275  -1.257767   2.213456
H  -6.957478  -2.023987   0.621528
H  -7.196588  -0.271521   0.815437

