%chk=/home/boittier/MDCM/nms_sampling/cyanomethane_geom.xyz.dir/cyanomethane_1608.chk
%nproc=8
%mem=16000MB
#p B2PLYPD3/Def2QZVP 

cyanomethane

0 1
C  -6.592050  -1.120079   1.181152
C  -5.206507  -0.766049   0.884598
N  -4.098144  -0.551400   0.711814
H  -6.714547  -1.269330   2.226826
H  -6.830909  -2.076840   0.629120
H  -7.258544  -0.282052   0.798047
