%chk=/home/boittier/MDCM/nms_sampling/cyanomethane_geom.xyz.dir/cyanomethane_1334.chk
%nproc=8
%mem=16000MB
#p B2PLYPD3/Def2QZVP 

cyanomethane

0 1
C  -6.598657  -1.109262   1.176264
C  -5.196108  -0.807938   0.871548
N  -4.090378  -0.532606   0.720711
H  -6.799392  -1.205125   2.243898
H  -6.827949  -2.023491   0.695384
H  -7.332907  -0.309365   0.811568
