%chk=/home/boittier/MDCM/nms_sampling/cyanomethane_geom.xyz.dir/cyanomethane_454.chk
%nproc=8
%mem=16000MB
#p B2PLYPD3/Def2QZVP 

cyanomethane

0 1
C  -6.595615  -1.107437   1.159426
C  -5.200835  -0.813992   0.907674
N  -4.091210  -0.525635   0.703414
H  -6.800048  -1.216968   2.229162
H  -6.888365  -2.016235   0.706445
H  -7.240094  -0.335063   0.825163
