%chk=/home/boittier/MDCM/nms_sampling/cyanomethane_geom.xyz.dir/cyanomethane_1355.chk
%nproc=8
%mem=16000MB
#p B2PLYPD3/Def2QZVP 

cyanomethane

0 1
C  -6.598657  -1.113968   1.157526
C  -5.194420  -0.780514   0.908535
N  -4.089100  -0.543526   0.704000
H  -6.859386  -1.260183   2.212769
H  -6.863243  -2.017743   0.692795
H  -7.275367  -0.356291   0.847302
