%chk=/home/boittier/MDCM/nms_sampling/cyanomethane_geom.xyz.dir/cyanomethane_2318.chk
%nproc=8
%mem=16000MB
#p B2PLYPD3/Def2QZVP 

cyanomethane

0 1
C  -6.609345  -1.123977   1.186344
C  -5.201831  -0.790808   0.864425
N  -4.088032  -0.539047   0.722712
H  -6.728789  -1.160733   2.218904
H  -6.817860  -2.036473   0.700129
H  -7.247231  -0.285404   0.767519

