%chk=/home/boittier/MDCM/nms_sampling/cyanomethane_geom.xyz.dir/cyanomethane_2033.chk
%nproc=8
%mem=16000MB
#p B2PLYPD3/Def2QZVP 

cyanomethane

0 1
C  -6.582600  -1.118002   1.157012
C  -5.207693  -0.762035   0.903187
N  -4.098832  -0.554598   0.704927
H  -6.776711  -1.242394   2.276714
H  -6.823341  -2.030512   0.702381
H  -7.297005  -0.387620   0.822342
