%chk=/home/boittier/MDCM/nms_sampling/cyanomethane_geom.xyz.dir/cyanomethane_3314.chk
%nproc=8
%mem=16000MB
#p B2PLYPD3/Def2QZVP 

cyanomethane

0 1
C  -6.598673  -1.138457   1.146880
C  -5.198326  -0.756823   0.962789
N  -4.099745  -0.552280   0.674579
H  -6.740775  -1.129476   2.249176
H  -6.864708  -2.045343   0.694086
H  -7.198888  -0.328769   0.706473

