%chk=/home/boittier/MDCM/nms_sampling/cyanomethane_geom.xyz.dir/cyanomethane_2110.chk
%nproc=8
%mem=16000MB
#p B2PLYPD3/Def2QZVP 

cyanomethane

0 1
C  -6.597169  -1.108799   1.181734
C  -5.201052  -0.800483   0.874167
N  -4.087274  -0.533617   0.719333
H  -6.811095  -1.261606   2.274045
H  -6.879841  -2.038122   0.611094
H  -7.271677  -0.303425   0.794949

