%chk=/home/boittier/MDCM/nms_sampling/cyanomethane_geom.xyz.dir/cyanomethane_1689.chk
%nproc=8
%mem=16000MB
#p B2PLYPD3/Def2QZVP 

cyanomethane

0 1
C  -6.594547  -1.103122   1.166088
C  -5.205825  -0.797074   0.945503
N  -4.097066  -0.536891   0.680967
H  -6.687303  -1.239085   2.201268
H  -6.826402  -2.107211   0.622446
H  -7.286350  -0.303067   0.727563
