%chk=/home/boittier/MDCM/nms_sampling/cyanomethane_geom.xyz.dir/cyanomethane_225.chk
%nproc=8
%mem=16000MB
#p B2PLYPD3/Def2QZVP 

cyanomethane

0 1
C  -6.589920  -1.115707   1.172535
C  -5.204840  -0.782186   0.893665
N  -4.095954  -0.542768   0.707335
H  -6.731915  -1.220026   2.242229
H  -6.881126  -2.039911   0.680976
H  -7.269454  -0.354591   0.783994
