%chk=/home/boittier/MDCM/nms_sampling/cyanomethane_geom.xyz.dir/cyanomethane_412.chk
%nproc=8
%mem=16000MB
#p B2PLYPD3/Def2QZVP 

cyanomethane

0 1
C  -6.600638  -1.116532   1.164970
C  -5.198058  -0.790569   0.922591
N  -4.091047  -0.536717   0.691725
H  -6.704670  -1.221856   2.222817
H  -6.931884  -2.041522   0.665949
H  -7.266527  -0.314428   0.786621
