%chk=/home/boittier/MDCM/nms_sampling/cyanomethane_geom.xyz.dir/cyanomethane_492.chk
%nproc=8
%mem=16000MB
#p B2PLYPD3/Def2QZVP 

cyanomethane

0 1
C  -6.601465  -1.107794   1.166264
C  -5.200227  -0.800402   0.922788
N  -4.088938  -0.534170   0.694166
H  -6.759845  -1.240077   2.245108
H  -6.853668  -2.043674   0.621158
H  -7.285115  -0.314092   0.768523

