%chk=/home/boittier/MDCM/nms_sampling/cyanomethane_geom.xyz.dir/cyanomethane_2273.chk
%nproc=8
%mem=16000MB
#p B2PLYPD3/Def2QZVP 

cyanomethane

0 1
C  -6.596610  -1.102279   1.167933
C  -5.201218  -0.824474   0.897544
N  -4.088464  -0.522480   0.708783
H  -6.817573  -1.175911   2.249478
H  -6.859520  -2.035418   0.702494
H  -7.275000  -0.348451   0.762192

