%chk=/home/boittier/MDCM/nms_sampling/cyanomethane_geom.xyz.dir/cyanomethane_1579.chk
%nproc=8
%mem=16000MB
#p B2PLYPD3/Def2QZVP 

cyanomethane

0 1
C  -6.599693  -1.116449   1.174038
C  -5.196549  -0.815869   0.903739
N  -4.090214  -0.523204   0.702173
H  -6.749067  -1.136596   2.239921
H  -6.954682  -2.007079   0.688700
H  -7.242639  -0.338844   0.728676
