%chk=/home/boittier/MDCM/nms_sampling/cyanomethane_geom.xyz.dir/cyanomethane_2917.chk
%nproc=8
%mem=16000MB
#p B2PLYPD3/Def2QZVP 

cyanomethane

0 1
C  -6.620088  -1.118712   1.175471
C  -5.196213  -0.759767   0.946439
N  -4.078275  -0.555339   0.679389
H  -6.706632  -1.259003   2.176011
H  -6.839954  -2.148502   0.570765
H  -7.321928  -0.238398   0.702511
