%chk=/home/boittier/MDCM/nms_sampling/cyanomethane_geom.xyz.dir/cyanomethane_3311.chk
%nproc=8
%mem=16000MB
#p B2PLYPD3/Def2QZVP 

cyanomethane

0 1
C  -6.613080  -1.112493   1.161141
C  -5.194904  -0.804874   0.845016
N  -4.090371  -0.530871   0.739828
H  -6.873871  -1.260307   2.210289
H  -6.769152  -1.981262   0.785685
H  -7.154122  -0.317922   0.969888
