%chk=/home/boittier/MDCM/nms_sampling/cyanomethane_geom.xyz.dir/cyanomethane_3015.chk
%nproc=8
%mem=16000MB
#p B2PLYPD3/Def2QZVP 

cyanomethane

0 1
C  -6.612564  -1.077173   1.161325
C  -5.193273  -0.842905   0.937127
N  -4.091570  -0.511647   0.685151
H  -6.675656  -1.333899   2.159852
H  -6.907643  -2.088304   0.644120
H  -7.225491  -0.328575   0.844288
