%chk=/home/boittier/MDCM/nms_sampling/cyanomethane_geom.xyz.dir/cyanomethane_2956.chk
%nproc=8
%mem=16000MB
#p B2PLYPD3/Def2QZVP 

cyanomethane

0 1
C  -6.594966  -1.111398   1.178456
C  -5.197767  -0.853494   0.913844
N  -4.083864  -0.503395   0.694942
H  -6.735013  -1.065959   2.213921
H  -7.050579  -2.017665   0.707445
H  -7.291608  -0.293058   0.679274

