%chk=/home/boittier/MDCM/nms_sampling/cyanomethane_geom.xyz.dir/cyanomethane_1129.chk
%nproc=8
%mem=16000MB
#p B2PLYPD3/Def2QZVP 

cyanomethane

0 1
C  -6.595557  -1.113102   1.161699
C  -5.199201  -0.794373   0.892396
N  -4.092978  -0.536446   0.711493
H  -6.808932  -1.233150   2.255358
H  -6.859574  -2.032964   0.704153
H  -7.254994  -0.322101   0.838852

