%chk=/home/boittier/MDCM/nms_sampling/cyanomethane_geom.xyz.dir/cyanomethane_1048.chk
%nproc=8
%mem=16000MB
#p B2PLYPD3/Def2QZVP 

cyanomethane

0 1
C  -6.595716  -1.115986   1.175806
C  -5.203744  -0.772204   0.897628
N  -4.095848  -0.547703   0.706008
H  -6.736510  -1.242171   2.224116
H  -6.851918  -2.095535   0.656063
H  -7.237632  -0.318074   0.764452
