%chk=/home/boittier/MDCM/nms_sampling/cyanomethane_geom.xyz.dir/cyanomethane_3055.chk
%nproc=8
%mem=16000MB
#p B2PLYPD3/Def2QZVP 

cyanomethane

0 1
C  -6.593260  -1.085718   1.178793
C  -5.191976  -0.842536   0.850389
N  -4.091301  -0.518814   0.732545
H  -6.847292  -1.177833   2.252648
H  -6.821169  -2.071058   0.767914
H  -7.394541  -0.367083   0.791757

