%chk=/home/boittier/MDCM/nms_sampling/cyanomethane_geom.xyz.dir/cyanomethane_263.chk
%nproc=8
%mem=16000MB
#p B2PLYPD3/Def2QZVP 

cyanomethane

0 1
C  -6.591496  -1.109594   1.168009
C  -5.203054  -0.807492   0.911069
N  -4.095824  -0.528675   0.700051
H  -6.755440  -1.217784   2.239134
H  -6.895038  -2.060028   0.659110
H  -7.236360  -0.296875   0.774479
