%chk=/home/boittier/MDCM/nms_sampling/cyanomethane_geom.xyz.dir/cyanomethane_1831.chk
%nproc=8
%mem=16000MB
#p B2PLYPD3/Def2QZVP 

cyanomethane

0 1
C  -6.582461  -1.123354   1.166686
C  -5.207561  -0.765423   0.894273
N  -4.098375  -0.551828   0.709273
H  -6.797179  -1.219051   2.201792
H  -6.832933  -2.020224   0.714055
H  -7.274479  -0.358464   0.818117

