%chk=/home/boittier/MDCM/nms_sampling/cyanomethane_geom.xyz.dir/cyanomethane_295.chk
%nproc=8
%mem=16000MB
#p B2PLYPD3/Def2QZVP 

cyanomethane

0 1
C  -6.596726  -1.118066   1.162424
C  -5.201673  -0.793008   0.910598
N  -4.090977  -0.534598   0.700400
H  -6.768035  -1.216619   2.234672
H  -6.918860  -2.019625   0.685283
H  -7.220929  -0.327564   0.807834

