%chk=/home/boittier/MDCM/nms_sampling/cyanomethane_geom.xyz.dir/cyanomethane_472.chk
%nproc=8
%mem=16000MB
#p B2PLYPD3/Def2QZVP 

cyanomethane

0 1
C  -6.590700  -1.121610   1.167357
C  -5.201613  -0.772273   0.903448
N  -4.098009  -0.545985   0.703773
H  -6.762851  -1.249812   2.254288
H  -6.886889  -2.034092   0.646040
H  -7.233251  -0.323343   0.804063

