%chk=/home/boittier/MDCM/nms_sampling/cyanomethane_geom.xyz.dir/cyanomethane_565.chk
%nproc=8
%mem=16000MB
#p B2PLYPD3/Def2QZVP 

cyanomethane

0 1
C  -6.600283  -1.106035   1.166601
C  -5.197486  -0.820071   0.910668
N  -4.090952  -0.523744   0.700472
H  -6.764749  -1.210961   2.243940
H  -6.874509  -2.015360   0.657312
H  -7.278264  -0.311763   0.788065

