%chk=/home/boittier/MDCM/nms_sampling/cyanomethane_geom.xyz.dir/cyanomethane_1916.chk
%nproc=8
%mem=16000MB
#p B2PLYPD3/Def2QZVP 

cyanomethane

0 1
C  -6.594113  -1.124844   1.172796
C  -5.203839  -0.755245   0.903288
N  -4.101316  -0.554715   0.702161
H  -6.702620  -1.266443   2.176237
H  -6.856819  -2.062257   0.664607
H  -7.206501  -0.318366   0.813214

