%chk=/home/boittier/MDCM/nms_sampling/cyanomethane_geom.xyz.dir/cyanomethane_277.chk
%nproc=8
%mem=16000MB
#p B2PLYPD3/Def2QZVP 

cyanomethane

0 1
C  -6.603975  -1.115908   1.168752
C  -5.197543  -0.788681   0.922890
N  -4.090429  -0.538456   0.691230
H  -6.699420  -1.223736   2.186683
H  -6.905459  -2.026633   0.661773
H  -7.272851  -0.332062   0.782456

