%chk=/home/boittier/MDCM/nms_sampling/cyanomethane_geom.xyz.dir/cyanomethane_34.chk
%nproc=8
%mem=16000MB
#p B2PLYPD3/Def2QZVP 

cyanomethane

0 1
C  -6.593308  -1.121766   1.158584
C  -5.205223  -0.778724   0.922098
N  -4.096909  -0.541991   0.694314
H  -6.731253  -1.232453   2.220886
H  -6.883423  -2.042655   0.682115
H  -7.207656  -0.306371   0.814959

