%chk=/home/boittier/MDCM/nms_sampling/cyanomethane_geom.xyz.dir/cyanomethane_729.chk
%nproc=8
%mem=16000MB
#p B2PLYPD3/Def2QZVP 

cyanomethane

0 1
C  -6.596705  -1.118472   1.176685
C  -5.198940  -0.791984   0.884843
N  -4.092152  -0.536050   0.714998
H  -6.827786  -1.212614   2.237561
H  -6.881544  -2.049844   0.658508
H  -7.214933  -0.295986   0.775480

