%chk=/home/boittier/MDCM/nms_sampling/cyanomethane_geom.xyz.dir/cyanomethane_3126.chk
%nproc=8
%mem=16000MB
#p B2PLYPD3/Def2QZVP 

cyanomethane

0 1
C  -6.611820  -1.102097   1.155055
C  -5.190133  -0.834453   0.931534
N  -4.087295  -0.513216   0.697772
H  -6.949741  -1.221987   2.226488
H  -6.838608  -2.030947   0.633750
H  -7.130622  -0.293361   0.775650
