%chk=/home/boittier/MDCM/nms_sampling/cyanomethane_geom.xyz.dir/cyanomethane_2841.chk
%nproc=8
%mem=16000MB
#p B2PLYPD3/Def2QZVP 

cyanomethane

0 1
C  -6.576093  -1.140872   1.145018
C  -5.206437  -0.769837   0.979653
N  -4.105803  -0.543347   0.660116
H  -6.631752  -1.177318   2.212292
H  -6.996021  -1.895319   0.648536
H  -7.266623  -0.353255   0.797292

