%chk=/home/boittier/MDCM/nms_sampling/cyanomethane_geom.xyz.dir/cyanomethane_402.chk
%nproc=8
%mem=16000MB
#p B2PLYPD3/Def2QZVP 

cyanomethane

0 1
C  -6.601861  -1.112738   1.164385
C  -5.200541  -0.797961   0.890008
N  -4.092864  -0.533954   0.713562
H  -6.807939  -1.230096   2.223291
H  -6.828808  -2.034638   0.708696
H  -7.195575  -0.319078   0.836222
