%chk=/home/boittier/MDCM/nms_sampling/cyanomethane_geom.xyz.dir/cyanomethane_1782.chk
%nproc=8
%mem=16000MB
#p B2PLYPD3/Def2QZVP 

cyanomethane

0 1
C  -6.590407  -1.106971   1.159544
C  -5.201390  -0.818239   0.916064
N  -4.099967  -0.523390   0.702389
H  -6.854753  -1.220501   2.265512
H  -6.820597  -2.016277   0.639579
H  -7.189308  -0.311350   0.785202
