%chk=/home/boittier/MDCM/nms_sampling/cyanomethane_geom.xyz.dir/cyanomethane_1181.chk
%nproc=8
%mem=16000MB
#p B2PLYPD3/Def2QZVP 

cyanomethane

0 1
C  -6.595598  -1.110204   1.171550
C  -5.204821  -0.792729   0.891747
N  -4.095151  -0.538286   0.711094
H  -6.770501  -1.245343   2.237859
H  -6.812672  -2.073963   0.663517
H  -7.241460  -0.294474   0.800333
