%chk=/home/boittier/MDCM/nms_sampling/cyanomethane_geom.xyz.dir/cyanomethane_807.chk
%nproc=8
%mem=16000MB
#p B2PLYPD3/Def2QZVP 

cyanomethane

0 1
C  -6.596367  -1.108343   1.162057
C  -5.201889  -0.810549   0.916981
N  -4.097955  -0.527430   0.699396
H  -6.780274  -1.213153   2.232638
H  -6.835526  -2.060155   0.671994
H  -7.196874  -0.296536   0.780312

