%chk=/home/boittier/MDCM/nms_sampling/cyanomethane_geom.xyz.dir/cyanomethane_409.chk
%nproc=8
%mem=16000MB
#p B2PLYPD3/Def2QZVP 

cyanomethane

0 1
C  -6.603026  -1.111103   1.154784
C  -5.197447  -0.790664   0.933089
N  -4.090905  -0.538189   0.689533
H  -6.763969  -1.232506   2.221267
H  -6.861224  -2.031202   0.679848
H  -7.259846  -0.354307   0.799271
