%chk=/home/boittier/MDCM/nms_sampling/cyanomethane_geom.xyz.dir/cyanomethane_2758.chk
%nproc=8
%mem=16000MB
#p B2PLYPD3/Def2QZVP 

cyanomethane

0 1
C  -6.597764  -1.097804   1.154618
C  -5.203831  -0.842638   0.896696
N  -4.105324  -0.510373   0.711021
H  -6.748434  -1.208474   2.233878
H  -6.813053  -2.007617   0.753359
H  -7.107649  -0.343175   0.860267

