%chk=/home/boittier/MDCM/nms_sampling/cyanomethane_geom.xyz.dir/cyanomethane_3247.chk
%nproc=8
%mem=16000MB
#p B2PLYPD3/Def2QZVP 

cyanomethane

0 1
C  -6.603852  -1.105611   1.186201
C  -5.199417  -0.803111   0.861183
N  -4.099469  -0.530514   0.723945
H  -6.692704  -1.330376   2.194749
H  -6.862632  -2.070225   0.632253
H  -7.170532  -0.244206   0.883661
