%chk=/home/boittier/MDCM/nms_sampling/cyanomethane_geom.xyz.dir/cyanomethane_740.chk
%nproc=8
%mem=16000MB
#p B2PLYPD3/Def2QZVP 

cyanomethane

0 1
C  -6.593113  -1.113665   1.168617
C  -5.202065  -0.784717   0.896527
N  -4.097517  -0.540325   0.708675
H  -6.785592  -1.247320   2.253343
H  -6.860968  -2.052471   0.659144
H  -7.209071  -0.336008   0.795779

