%chk=/home/boittier/MDCM/nms_sampling/cyanomethane_geom.xyz.dir/cyanomethane_693.chk
%nproc=8
%mem=16000MB
#p B2PLYPD3/Def2QZVP 

cyanomethane

0 1
C  -6.587776  -1.114161   1.176501
C  -5.205111  -0.801466   0.899567
N  -4.096172  -0.531319   0.704998
H  -6.758112  -1.210492   2.213857
H  -6.908026  -2.039403   0.654440
H  -7.235448  -0.307948   0.767882
