%chk=/home/boittier/MDCM/nms_sampling/cyanomethane_geom.xyz.dir/cyanomethane_1039.chk
%nproc=8
%mem=16000MB
#p B2PLYPD3/Def2QZVP 

cyanomethane

0 1
C  -6.604524  -1.112856   1.168673
C  -5.199924  -0.775985   0.905893
N  -4.091388  -0.548110   0.702005
H  -6.730033  -1.224253   2.225339
H  -6.809427  -2.070554   0.684822
H  -7.290154  -0.351561   0.771767

