%chk=/home/boittier/MDCM/nms_sampling/cyanomethane_geom.xyz.dir/cyanomethane_3021.chk
%nproc=8
%mem=16000MB
#p B2PLYPD3/Def2QZVP 

cyanomethane

0 1
C  -6.574006  -1.116939   1.141560
C  -5.206269  -0.777294   0.988156
N  -4.106883  -0.546432   0.664923
H  -6.838987  -1.210968   2.255300
H  -6.774585  -2.020007   0.591301
H  -7.296525  -0.346060   0.712835

