%chk=/home/boittier/MDCM/nms_sampling/cyanomethane_geom.xyz.dir/cyanomethane_2118.chk
%nproc=8
%mem=16000MB
#p B2PLYPD3/Def2QZVP 

cyanomethane

0 1
C  -6.609746  -1.115402   1.167264
C  -5.199918  -0.807384   0.899238
N  -4.085358  -0.525024   0.706480
H  -6.755970  -1.234374   2.241627
H  -6.947510  -2.046720   0.669464
H  -7.145560  -0.274503   0.820058

