%chk=/home/boittier/MDCM/nms_sampling/cyanomethane_geom.xyz.dir/cyanomethane_3327.chk
%nproc=8
%mem=16000MB
#p B2PLYPD3/Def2QZVP 

cyanomethane

0 1
C  -6.583517  -1.122973   1.131934
C  -5.206849  -0.760777   0.968408
N  -4.108140  -0.552766   0.669730
H  -6.654556  -1.240388   2.194214
H  -6.846788  -2.034097   0.746896
H  -7.262187  -0.347043   0.864144
