%chk=/home/boittier/MDCM/nms_sampling/cyanomethane_geom.xyz.dir/cyanomethane_76.chk
%nproc=8
%mem=16000MB
#p B2PLYPD3/Def2QZVP 

cyanomethane

0 1
C  -6.606757  -1.105287   1.168233
C  -5.198668  -0.820623   0.910761
N  -4.089639  -0.523018   0.700901
H  -6.758739  -1.208506   2.218704
H  -6.851871  -2.021686   0.663631
H  -7.232619  -0.319526   0.780678
