%chk=/home/boittier/MDCM/nms_sampling/cyanomethane_geom.xyz.dir/cyanomethane_2285.chk
%nproc=8
%mem=16000MB
#p B2PLYPD3/Def2QZVP 

cyanomethane

0 1
C  -6.589192  -1.098989   1.162587
C  -5.205214  -0.793949   0.942153
N  -4.095746  -0.537967   0.683357
H  -6.731260  -1.279682   2.209919
H  -6.865633  -2.111295   0.623783
H  -7.293074  -0.325094   0.761000
