%chk=/home/boittier/MDCM/nms_sampling/cyanomethane_geom.xyz.dir/cyanomethane_2654.chk
%nproc=8
%mem=16000MB
#p B2PLYPD3/Def2QZVP 

cyanomethane

0 1
C  -6.608917  -1.111265   1.188878
C  -5.201741  -0.867433   0.903476
N  -4.083481  -0.496006   0.701825
H  -6.722182  -1.074282   2.148811
H  -6.948589  -1.993860   0.676025
H  -7.194645  -0.243757   0.690185
