%chk=/home/boittier/MDCM/nms_sampling/cyanomethane_geom.xyz.dir/cyanomethane_2526.chk
%nproc=8
%mem=16000MB
#p B2PLYPD3/Def2QZVP 

cyanomethane

0 1
C  -6.621506  -1.102635   1.139952
C  -5.192504  -0.791242   0.982550
N  -4.087957  -0.537256   0.669077
H  -6.815739  -1.258793   2.195762
H  -6.783293  -2.150569   0.649154
H  -7.163630  -0.295471   0.747316

