%chk=/home/boittier/MDCM/nms_sampling/cyanomethane_geom.xyz.dir/cyanomethane_1692.chk
%nproc=8
%mem=16000MB
#p B2PLYPD3/Def2QZVP 

cyanomethane

0 1
C  -6.603175  -1.117522   1.174904
C  -5.196111  -0.778229   0.930913
N  -4.088491  -0.542484   0.686302
H  -6.708342  -1.262662   2.180442
H  -6.949245  -2.061454   0.596379
H  -7.273426  -0.295504   0.759743

