%chk=/home/boittier/MDCM/nms_sampling/cyanomethane_geom.xyz.dir/cyanomethane_874.chk
%nproc=8
%mem=16000MB
#p B2PLYPD3/Def2QZVP 

cyanomethane

0 1
C  -6.595141  -1.117140   1.167735
C  -5.200565  -0.793753   0.886036
N  -4.093972  -0.535210   0.714194
H  -6.804728  -1.221209   2.239299
H  -6.879410  -1.999519   0.695524
H  -7.214346  -0.344263   0.828177
