%chk=/home/boittier/MDCM/nms_sampling/cyanomethane_geom.xyz.dir/cyanomethane_1980.chk
%nproc=8
%mem=16000MB
#p B2PLYPD3/Def2QZVP 

cyanomethane

0 1
C  -6.585517  -1.125320   1.168901
C  -5.205843  -0.781582   0.873999
N  -4.096201  -0.539323   0.721788
H  -6.848318  -1.253565   2.264316
H  -6.896785  -2.016472   0.667897
H  -7.172893  -0.281580   0.858458
