%chk=/home/boittier/MDCM/nms_sampling/cyanomethane_geom.xyz.dir/cyanomethane_1547.chk
%nproc=8
%mem=16000MB
#p B2PLYPD3/Def2QZVP 

cyanomethane

0 1
C  -6.598740  -1.123132   1.174101
C  -5.201581  -0.768806   0.886455
N  -4.097112  -0.549593   0.709284
H  -6.664694  -1.222239   2.228644
H  -6.864824  -2.047684   0.700580
H  -7.267700  -0.323772   0.810568

