%chk=/home/boittier/MDCM/nms_sampling/cyanomethane_geom.xyz.dir/cyanomethane_2188.chk
%nproc=8
%mem=16000MB
#p B2PLYPD3/Def2QZVP 

cyanomethane

0 1
C  -6.589123  -1.124960   1.166136
C  -5.202460  -0.818388   0.909564
N  -4.098848  -0.520274   0.702361
H  -6.796997  -1.112727   2.231559
H  -6.911671  -1.970000   0.701724
H  -7.173113  -0.308463   0.750612
