%chk=/home/boittier/MDCM/nms_sampling/cyanomethane_geom.xyz.dir/cyanomethane_1688.chk
%nproc=8
%mem=16000MB
#p B2PLYPD3/Def2QZVP 

cyanomethane

0 1
C  -6.596738  -1.112851   1.168407
C  -5.197644  -0.767140   0.902537
N  -4.090397  -0.553359   0.705880
H  -6.820224  -1.253462   2.276955
H  -6.811725  -2.110788   0.640681
H  -7.333261  -0.311898   0.762338
