%chk=/home/boittier/MDCM/nms_sampling/cyanomethane_geom.xyz.dir/cyanomethane_932.chk
%nproc=8
%mem=16000MB
#p B2PLYPD3/Def2QZVP 

cyanomethane

0 1
C  -6.607097  -1.118369   1.160571
C  -5.200722  -0.794069   0.921614
N  -4.089216  -0.534317   0.694370
H  -6.728184  -1.210651   2.211110
H  -6.884936  -2.006549   0.685259
H  -7.206019  -0.331403   0.805199

