%chk=/home/boittier/MDCM/nms_sampling/cyanomethane_geom.xyz.dir/cyanomethane_900.chk
%nproc=8
%mem=16000MB
#p B2PLYPD3/Def2QZVP 

cyanomethane

0 1
C  -6.603418  -1.110771   1.166268
C  -5.200362  -0.774267   0.901604
N  -4.089916  -0.547576   0.705103
H  -6.759674  -1.278723   2.243859
H  -6.836494  -2.060838   0.658095
H  -7.261738  -0.350805   0.815468

