%chk=/home/boittier/MDCM/nms_sampling/cyanomethane_geom.xyz.dir/cyanomethane_1574.chk
%nproc=8
%mem=16000MB
#p B2PLYPD3/Def2QZVP 

cyanomethane

0 1
C  -6.612432  -1.107552   1.174191
C  -5.195913  -0.831555   0.904079
N  -4.090654  -0.514310   0.700863
H  -6.667490  -1.179278   2.201644
H  -6.947467  -2.020352   0.693408
H  -7.177324  -0.318147   0.774752

