%chk=/home/boittier/MDCM/nms_sampling/cyanomethane_geom.xyz.dir/cyanomethane_2596.chk
%nproc=8
%mem=16000MB
#p B2PLYPD3/Def2QZVP 

cyanomethane

0 1
C  -6.575884  -1.101280   1.175535
C  -5.202994  -0.845796   0.904355
N  -4.108056  -0.501655   0.702001
H  -6.735976  -1.255984   2.274394
H  -7.085819  -2.013707   0.591007
H  -7.083803  -0.308703   0.784022

