%chk=/home/boittier/MDCM/nms_sampling/cyanomethane_geom.xyz.dir/cyanomethane_2340.chk
%nproc=8
%mem=16000MB
#p B2PLYPD3/Def2QZVP 

cyanomethane

0 1
C  -6.610756  -1.115008   1.162079
C  -5.200174  -0.793684   0.900654
N  -4.084479  -0.536261   0.709409
H  -6.835298  -1.243596   2.242570
H  -6.807831  -2.059554   0.668516
H  -7.203742  -0.266598   0.824839

