%chk=/home/boittier/MDCM/nms_sampling/cyanomethane_geom.xyz.dir/cyanomethane_2154.chk
%nproc=8
%mem=16000MB
#p B2PLYPD3/Def2QZVP 

cyanomethane

0 1
C  -6.599826  -1.116659   1.155938
C  -5.205937  -0.806176   0.924019
N  -4.094962  -0.525213   0.695078
H  -6.741909  -1.232597   2.261804
H  -6.909369  -2.025657   0.654077
H  -7.112424  -0.285955   0.815267
