%chk=/home/boittier/MDCM/nms_sampling/cyanomethane_geom.xyz.dir/cyanomethane_250.chk
%nproc=8
%mem=16000MB
#p B2PLYPD3/Def2QZVP 

cyanomethane

0 1
C  -6.597685  -1.112166   1.174307
C  -5.199143  -0.800734   0.891009
N  -4.093490  -0.532493   0.710862
H  -6.778960  -1.218863   2.264210
H  -6.879366  -2.070951   0.652812
H  -7.233536  -0.288202   0.770230
