%chk=/home/boittier/MDCM/nms_sampling/cyanomethane_geom.xyz.dir/cyanomethane_1635.chk
%nproc=8
%mem=16000MB
#p B2PLYPD3/Def2QZVP 

cyanomethane

0 1
C  -6.597161  -1.106083   1.162967
C  -5.198134  -0.822574   0.923547
N  -4.093100  -0.522630   0.693735
H  -6.751709  -1.171086   2.257011
H  -6.881148  -2.040861   0.674886
H  -7.285285  -0.314752   0.744589
