%chk=/home/boittier/MDCM/nms_sampling/cyanomethane_geom.xyz.dir/cyanomethane_374.chk
%nproc=8
%mem=16000MB
#p B2PLYPD3/Def2QZVP 

cyanomethane

0 1
C  -6.595756  -1.112834   1.166304
C  -5.202315  -0.810442   0.905720
N  -4.098143  -0.526460   0.703369
H  -6.747372  -1.190025   2.215999
H  -6.874693  -2.036683   0.701954
H  -7.189364  -0.310792   0.788492

