%chk=/home/boittier/MDCM/nms_sampling/cyanomethane_geom.xyz.dir/cyanomethane_345.chk
%nproc=8
%mem=16000MB
#p B2PLYPD3/Def2QZVP 

cyanomethane

0 1
C  -6.596649  -1.108619   1.169287
C  -5.202440  -0.784837   0.914050
N  -4.098011  -0.542666   0.698449
H  -6.732842  -1.243667   2.238205
H  -6.814598  -2.082523   0.641717
H  -7.254896  -0.332755   0.756900
