%chk=/home/boittier/MDCM/nms_sampling/cyanomethane_geom.xyz.dir/cyanomethane_2378.chk
%nproc=8
%mem=16000MB
#p B2PLYPD3/Def2QZVP 

cyanomethane

0 1
C  -6.583708  -1.122463   1.177817
C  -5.202108  -0.751331   0.889154
N  -4.101693  -0.558096   0.709128
H  -6.742486  -1.288685   2.265656
H  -6.884424  -2.053577   0.607616
H  -7.282716  -0.334875   0.795943

