%chk=/home/boittier/MDCM/nms_sampling/cyanomethane_geom.xyz.dir/cyanomethane_3195.chk
%nproc=8
%mem=16000MB
#p B2PLYPD3/Def2QZVP 

cyanomethane

0 1
C  -6.594806  -1.142857   1.159990
C  -5.200781  -0.790386   0.943813
N  -4.084536  -0.533812   0.682120
H  -6.777693  -1.080115   2.208158
H  -6.982153  -1.969459   0.693447
H  -7.272907  -0.267837   0.722935

