%chk=/home/boittier/MDCM/nms_sampling/cyanomethane_geom.xyz.dir/cyanomethane_167.chk
%nproc=8
%mem=16000MB
#p B2PLYPD3/Def2QZVP 

cyanomethane

0 1
C  -6.596482  -1.122790   1.166990
C  -5.204570  -0.768934   0.906029
N  -4.095616  -0.547734   0.702279
H  -6.734993  -1.249708   2.244876
H  -6.861828  -2.041165   0.649125
H  -7.213932  -0.317074   0.803813
