%chk=/home/boittier/MDCM/nms_sampling/cyanomethane_geom.xyz.dir/cyanomethane_2904.chk
%nproc=8
%mem=16000MB
#p B2PLYPD3/Def2QZVP 

cyanomethane

0 1
C  -6.590260  -1.109799   1.161880
C  -5.205734  -0.791241   0.862912
N  -4.104011  -0.537019   0.728360
H  -6.792957  -1.289152   2.298022
H  -6.812556  -2.061496   0.712506
H  -7.147257  -0.307461   0.900171

