%chk=/home/boittier/MDCM/nms_sampling/cyanomethane_geom.xyz.dir/cyanomethane_1690.chk
%nproc=8
%mem=16000MB
#p B2PLYPD3/Def2QZVP 

cyanomethane

0 1
C  -6.593780  -1.123131   1.157180
C  -5.203275  -0.820601   0.909103
N  -4.102667  -0.517514   0.701666
H  -6.719254  -1.175784   2.239284
H  -6.920881  -1.943583   0.709298
H  -7.120623  -0.296193   0.847959

