%chk=/home/boittier/MDCM/nms_sampling/cyanomethane_geom.xyz.dir/cyanomethane_326.chk
%nproc=8
%mem=16000MB
#p B2PLYPD3/Def2QZVP 

cyanomethane

0 1
C  -6.597705  -1.117378   1.162500
C  -5.203615  -0.772368   0.903682
N  -4.095349  -0.547697   0.705307
H  -6.770059  -1.263169   2.235191
H  -6.812396  -2.056017   0.672261
H  -7.228254  -0.314372   0.829328
