%chk=/home/boittier/MDCM/nms_sampling/cyanomethane_geom.xyz.dir/cyanomethane_3395.chk
%nproc=8
%mem=16000MB
#p B2PLYPD3/Def2QZVP 

cyanomethane

0 1
C  -6.604914  -1.106441   1.148063
C  -5.190381  -0.854749   0.925328
N  -4.085042  -0.501490   0.696173
H  -6.866352  -1.168231   2.211538
H  -6.966698  -1.871910   0.724245
H  -7.198433  -0.386945   0.855280
