%chk=/home/boittier/MDCM/nms_sampling/cyanomethane_geom.xyz.dir/cyanomethane_531.chk
%nproc=8
%mem=16000MB
#p B2PLYPD3/Def2QZVP 

cyanomethane

0 1
C  -6.605955  -1.114266   1.172411
C  -5.198943  -0.800294   0.911607
N  -4.090590  -0.532209   0.698885
H  -6.728118  -1.195978   2.229637
H  -6.882927  -2.053009   0.654140
H  -7.224664  -0.308884   0.744809
