%chk=/home/boittier/MDCM/nms_sampling/cyanomethane_geom.xyz.dir/cyanomethane_191.chk
%nproc=8
%mem=16000MB
#p B2PLYPD3/Def2QZVP 

cyanomethane

0 1
C  -6.597729  -1.124415   1.162075
C  -5.198623  -0.765743   0.901888
N  -4.091283  -0.549452   0.704937
H  -6.780720  -1.235708   2.258265
H  -6.896946  -2.036446   0.686861
H  -7.250147  -0.336438   0.817967
