%chk=/home/boittier/MDCM/nms_sampling/cyanomethane_geom.xyz.dir/cyanomethane_1695.chk
%nproc=8
%mem=16000MB
#p B2PLYPD3/Def2QZVP 

cyanomethane

0 1
C  -6.614798  -1.115515   1.172884
C  -5.198310  -0.811669   0.913962
N  -4.084888  -0.523929   0.696589
H  -6.693748  -1.228570   2.204836
H  -6.932352  -2.030668   0.630838
H  -7.188428  -0.253897   0.794568

