%chk=/home/boittier/MDCM/nms_sampling/cyanomethane_geom.xyz.dir/cyanomethane_2590.chk
%nproc=8
%mem=16000MB
#p B2PLYPD3/Def2QZVP 

cyanomethane

0 1
C  -6.574082  -1.111953   1.143249
C  -5.209750  -0.771454   0.971631
N  -4.098562  -0.549433   0.674231
H  -6.890681  -1.217420   2.216022
H  -6.803657  -2.098429   0.661420
H  -7.285922  -0.355592   0.722737

