%chk=/home/boittier/MDCM/nms_sampling/cyanomethane_geom.xyz.dir/cyanomethane_1479.chk
%nproc=8
%mem=16000MB
#p B2PLYPD3/Def2QZVP 

cyanomethane

0 1
C  -6.594943  -1.126489   1.161646
C  -5.198428  -0.821121   0.916294
N  -4.089781  -0.518710   0.698873
H  -6.819744  -1.123579   2.220893
H  -6.947193  -1.971329   0.704438
H  -7.218686  -0.264142   0.781749
