%chk=/home/boittier/MDCM/nms_sampling/cyanomethane_geom.xyz.dir/cyanomethane_2233.chk
%nproc=8
%mem=16000MB
#p B2PLYPD3/Def2QZVP 

cyanomethane

0 1
C  -6.612330  -1.101921   1.163423
C  -5.195467  -0.780162   0.927583
N  -4.088173  -0.544832   0.690843
H  -6.721371  -1.312013   2.207051
H  -6.843433  -2.099110   0.632360
H  -7.268547  -0.339030   0.804727
