%chk=/home/boittier/MDCM/nms_sampling/cyanomethane_geom.xyz.dir/cyanomethane_3520.chk
%nproc=8
%mem=16000MB
#p B2PLYPD3/Def2QZVP 

cyanomethane

0 1
C  -6.602650  -1.100166   1.171779
C  -5.199689  -0.778778   0.957966
N  -4.080794  -0.548364   0.674630
H  -6.769846  -1.284094   2.247870
H  -6.840185  -2.087416   0.508680
H  -7.398097  -0.359187   0.669179
