%chk=/home/boittier/MDCM/nms_sampling/cyanomethane_geom.xyz.dir/cyanomethane_1388.chk
%nproc=8
%mem=16000MB
#p B2PLYPD3/Def2QZVP 

cyanomethane

0 1
C  -6.584319  -1.127090   1.167616
C  -5.206520  -0.765473   0.902489
N  -4.100087  -0.550670   0.705850
H  -6.803881  -1.177172   2.235718
H  -6.835089  -2.046631   0.697053
H  -7.233350  -0.347277   0.750423
