%chk=/home/boittier/MDCM/nms_sampling/cyanomethane_geom.xyz.dir/cyanomethane_3576.chk
%nproc=8
%mem=16000MB
#p B2PLYPD3/Def2QZVP 

cyanomethane

0 1
C  -6.626577  -1.125640   1.164528
C  -5.189931  -0.802299   0.914896
N  -4.085163  -0.525115   0.698157
H  -6.728630  -1.242189   2.219817
H  -6.948077  -1.969433   0.629475
H  -7.093202  -0.269858   0.841817

