%chk=/home/boittier/MDCM/nms_sampling/cyanomethane_geom.xyz.dir/cyanomethane_3072.chk
%nproc=8
%mem=16000MB
#p B2PLYPD3/Def2QZVP 

cyanomethane

0 1
C  -6.583698  -1.114360   1.141454
C  -5.212952  -0.760308   0.953705
N  -4.100733  -0.552034   0.680612
H  -6.762024  -1.324811   2.219785
H  -6.833305  -2.065993   0.650819
H  -7.196617  -0.335720   0.858462
