%chk=/home/boittier/MDCM/nms_sampling/cyanomethane_geom.xyz.dir/cyanomethane_1321.chk
%nproc=8
%mem=16000MB
#p B2PLYPD3/Def2QZVP 

cyanomethane

0 1
C  -6.581481  -1.113025   1.160363
C  -5.204869  -0.805326   0.926937
N  -4.102376  -0.529277   0.689208
H  -6.685027  -1.214415   2.232708
H  -6.937386  -1.992187   0.673377
H  -7.272505  -0.340322   0.806272
