%chk=/home/boittier/MDCM/nms_sampling/cyanomethane_geom.xyz.dir/cyanomethane_1295.chk
%nproc=8
%mem=16000MB
#p B2PLYPD3/Def2QZVP 

cyanomethane

0 1
C  -6.585996  -1.096156   1.167290
C  -5.202759  -0.837151   0.910892
N  -4.101916  -0.514974   0.702411
H  -6.788393  -1.215570   2.298650
H  -6.855811  -2.063921   0.623171
H  -7.230347  -0.293475   0.746886

