%chk=/home/boittier/MDCM/nms_sampling/cyanomethane_geom.xyz.dir/cyanomethane_927.chk
%nproc=8
%mem=16000MB
#p B2PLYPD3/Def2QZVP 

cyanomethane

0 1
C  -6.604183  -1.113059   1.165567
C  -5.198392  -0.783444   0.915545
N  -4.091222  -0.542359   0.699406
H  -6.790783  -1.242080   2.230016
H  -6.821996  -2.064004   0.645610
H  -7.242053  -0.319400   0.775315

