%chk=/home/boittier/MDCM/nms_sampling/cyanomethane_geom.xyz.dir/cyanomethane_620.chk
%nproc=8
%mem=16000MB
#p B2PLYPD3/Def2QZVP 

cyanomethane

0 1
C  -6.604951  -1.110203   1.162777
C  -5.200404  -0.786840   0.897089
N  -4.090301  -0.540116   0.709928
H  -6.805231  -1.272124   2.234551
H  -6.820170  -2.062870   0.678842
H  -7.207122  -0.317706   0.838977

