%chk=/home/boittier/MDCM/nms_sampling/cyanomethane_geom.xyz.dir/cyanomethane_2712.chk
%nproc=8
%mem=16000MB
#p B2PLYPD3/Def2QZVP 

cyanomethane

0 1
C  -6.575975  -1.087057   1.167309
C  -5.207991  -0.813356   0.862797
N  -4.095201  -0.529643   0.727479
H  -6.853382  -1.355347   2.323061
H  -6.861054  -2.069431   0.645908
H  -7.308670  -0.335671   0.897981
