%chk=/home/boittier/MDCM/nms_sampling/cyanomethane_geom.xyz.dir/cyanomethane_1504.chk
%nproc=8
%mem=16000MB
#p B2PLYPD3/Def2QZVP 

cyanomethane

0 1
C  -6.601518  -1.103558   1.175924
C  -5.198648  -0.795867   0.869272
N  -4.086679  -0.536814   0.722294
H  -6.808731  -1.310675   2.293540
H  -6.860694  -2.028460   0.616483
H  -7.278081  -0.333413   0.847690
