%chk=/home/boittier/MDCM/nms_sampling/cyanomethane_geom.xyz.dir/cyanomethane_813.chk
%nproc=8
%mem=16000MB
#p B2PLYPD3/Def2QZVP 

cyanomethane

0 1
C  -6.588802  -1.103853   1.161056
C  -5.202185  -0.791478   0.931086
N  -4.097405  -0.538034   0.689196
H  -6.743488  -1.282388   2.226292
H  -6.887527  -2.065858   0.634142
H  -7.277053  -0.340609   0.797121
