%chk=/home/boittier/MDCM/nms_sampling/cyanomethane_geom.xyz.dir/cyanomethane_1395.chk
%nproc=8
%mem=16000MB
#p B2PLYPD3/Def2QZVP 

cyanomethane

0 1
C  -6.584544  -1.103536   1.160650
C  -5.201818  -0.833034   0.914118
N  -4.100971  -0.515844   0.702905
H  -6.853224  -1.193329   2.290929
H  -6.856292  -2.023874   0.646273
H  -7.207359  -0.306004   0.762409
