%chk=/home/boittier/MDCM/nms_sampling/cyanomethane_geom.xyz.dir/cyanomethane_2959.chk
%nproc=8
%mem=16000MB
#p B2PLYPD3/Def2QZVP 

cyanomethane

0 1
C  -6.592868  -1.143109   1.171670
C  -5.203058  -0.713569   0.905738
N  -4.102967  -0.576131   0.706315
H  -6.846284  -1.218076   2.221927
H  -6.757544  -2.097162   0.640668
H  -7.165660  -0.318668   0.723791

