%chk=/home/boittier/MDCM/nms_sampling/cyanomethane_geom.xyz.dir/cyanomethane_1430.chk
%nproc=8
%mem=16000MB
#p B2PLYPD3/Def2QZVP 

cyanomethane

0 1
C  -6.602712  -1.125025   1.157846
C  -5.195126  -0.767924   0.905123
N  -4.088221  -0.547911   0.703777
H  -6.801444  -1.224917   2.225532
H  -6.906448  -2.011372   0.721634
H  -7.244348  -0.361224   0.838077

