%chk=/home/boittier/MDCM/nms_sampling/cyanomethane_geom.xyz.dir/cyanomethane_2177.chk
%nproc=8
%mem=16000MB
#p B2PLYPD3/Def2QZVP 

cyanomethane

0 1
C  -6.598957  -1.109936   1.175241
C  -5.199654  -0.783896   0.898299
N  -4.097203  -0.540384   0.704336
H  -6.698884  -1.272511   2.239480
H  -6.903074  -2.070152   0.637536
H  -7.215964  -0.341265   0.788416

