%chk=/home/boittier/MDCM/nms_sampling/cyanomethane_geom.xyz.dir/cyanomethane_3107.chk
%nproc=8
%mem=16000MB
#p B2PLYPD3/Def2QZVP 

cyanomethane

0 1
C  -6.622666  -1.096273   1.185952
C  -5.199807  -0.819762   0.870039
N  -4.083825  -0.521894   0.719405
H  -6.681480  -1.287137   2.264279
H  -6.888398  -2.081937   0.619426
H  -7.147436  -0.312934   0.796605

