%chk=/home/boittier/MDCM/nms_sampling/cyanomethane_geom.xyz.dir/cyanomethane_2991.chk
%nproc=8
%mem=16000MB
#p B2PLYPD3/Def2QZVP 

cyanomethane

0 1
C  -6.627272  -1.116974   1.176953
C  -5.189925  -0.820742   0.938817
N  -4.083719  -0.518102   0.682947
H  -6.656385  -1.155992   2.236586
H  -6.963862  -2.096255   0.595914
H  -7.163333  -0.217932   0.663651

