%chk=/home/boittier/MDCM/nms_sampling/cyanomethane_geom.xyz.dir/cyanomethane_2044.chk
%nproc=8
%mem=16000MB
#p B2PLYPD3/Def2QZVP 

cyanomethane

0 1
C  -6.584675  -1.115328   1.159160
C  -5.203501  -0.766041   0.897372
N  -4.102830  -0.550569   0.709789
H  -6.820473  -1.278074   2.270233
H  -6.828338  -2.032550   0.675203
H  -7.217431  -0.382663   0.837110
