%chk=/home/boittier/MDCM/nms_sampling/cyanomethane_geom.xyz.dir/cyanomethane_3464.chk
%nproc=8
%mem=16000MB
#p B2PLYPD3/Def2QZVP 

cyanomethane

0 1
C  -6.607404  -1.152789   1.167429
C  -5.201769  -0.728052   0.902142
N  -4.082656  -0.568471   0.705880
H  -6.811907  -1.140508   2.227432
H  -6.832526  -2.079349   0.712710
H  -7.247400  -0.249291   0.745937
