%chk=/home/boittier/MDCM/nms_sampling/cyanomethane_geom.xyz.dir/cyanomethane_967.chk
%nproc=8
%mem=16000MB
#p B2PLYPD3/Def2QZVP 

cyanomethane

0 1
C  -6.607247  -1.109182   1.160987
C  -5.198634  -0.813172   0.911949
N  -4.090995  -0.524904   0.700966
H  -6.755661  -1.227962   2.251275
H  -6.874686  -2.030468   0.669158
H  -7.187713  -0.303973   0.811478
