%chk=/home/boittier/MDCM/nms_sampling/cyanomethane_geom.xyz.dir/cyanomethane_3449.chk
%nproc=8
%mem=16000MB
#p B2PLYPD3/Def2QZVP 

cyanomethane

0 1
C  -6.597169  -1.081882   1.151698
C  -5.202268  -0.873604   0.926804
N  -4.105139  -0.496361   0.692888
H  -6.674618  -1.202542   2.185838
H  -6.844252  -2.028683   0.756833
H  -7.179007  -0.337001   0.840053

