%chk=/home/boittier/MDCM/nms_sampling/cyanomethane_geom.xyz.dir/cyanomethane_2399.chk
%nproc=8
%mem=16000MB
#p B2PLYPD3/Def2QZVP 

cyanomethane

0 1
C  -6.584767  -1.109334   1.160493
C  -5.201475  -0.804372   0.880986
N  -4.100362  -0.530186   0.720299
H  -6.878061  -1.280002   2.292006
H  -6.845683  -1.998688   0.660830
H  -7.200155  -0.315694   0.880362
