%chk=/home/boittier/MDCM/nms_sampling/cyanomethane_geom.xyz.dir/cyanomethane_2217.chk
%nproc=8
%mem=16000MB
#p B2PLYPD3/Def2QZVP 

cyanomethane

0 1
C  -6.584760  -1.118580   1.167291
C  -5.202360  -0.793279   0.892919
N  -4.102209  -0.533415   0.711864
H  -6.832712  -1.233859   2.253152
H  -6.896757  -1.996104   0.657704
H  -7.158153  -0.340544   0.813995

