%chk=/home/boittier/MDCM/nms_sampling/cyanomethane_geom.xyz.dir/cyanomethane_2428.chk
%nproc=8
%mem=16000MB
#p B2PLYPD3/Def2QZVP 

cyanomethane

0 1
C  -6.616750  -1.131017   1.178284
C  -5.201340  -0.725007   0.883820
N  -4.083118  -0.573039   0.708012
H  -6.625427  -1.279212   2.184564
H  -6.842061  -2.000507   0.682859
H  -7.310878  -0.407704   0.843902

