%chk=/home/boittier/MDCM/nms_sampling/cyanomethane_geom.xyz.dir/cyanomethane_2551.chk
%nproc=8
%mem=16000MB
#p B2PLYPD3/Def2QZVP 

cyanomethane

0 1
C  -6.590554  -1.127244   1.147307
C  -5.213754  -0.821781   0.918866
N  -4.102253  -0.517030   0.697047
H  -6.684902  -1.160939   2.178122
H  -6.882662  -1.959586   0.779045
H  -7.108140  -0.240330   0.900257
