%chk=/home/boittier/MDCM/nms_sampling/cyanomethane_geom.xyz.dir/cyanomethane_948.chk
%nproc=8
%mem=16000MB
#p B2PLYPD3/Def2QZVP 

cyanomethane

0 1
C  -6.606871  -1.110610   1.161349
C  -5.198560  -0.797911   0.891612
N  -4.089863  -0.534477   0.712661
H  -6.800927  -1.233405   2.251517
H  -6.828494  -2.029349   0.707981
H  -7.209401  -0.340196   0.836556

