%chk=/home/boittier/MDCM/nms_sampling/cyanomethane_geom.xyz.dir/cyanomethane_877.chk
%nproc=8
%mem=16000MB
#p B2PLYPD3/Def2QZVP 

cyanomethane

0 1
C  -6.597117  -1.107181   1.174011
C  -5.202230  -0.810503   0.907415
N  -4.098082  -0.527585   0.702254
H  -6.744752  -1.226251   2.227212
H  -6.848215  -2.052420   0.630776
H  -7.205151  -0.302068   0.760050
