%chk=/home/boittier/MDCM/nms_sampling/cyanomethane_geom.xyz.dir/cyanomethane_1676.chk
%nproc=8
%mem=16000MB
#p B2PLYPD3/Def2QZVP 

cyanomethane

0 1
C  -6.591420  -1.119588   1.176753
C  -5.206716  -0.812003   0.909346
N  -4.095796  -0.525448   0.698216
H  -6.689465  -1.171394   2.198266
H  -6.913072  -2.021757   0.657916
H  -7.240571  -0.258148   0.760034

