%chk=/home/boittier/MDCM/nms_sampling/cyanomethane_geom.xyz.dir/cyanomethane_3289.chk
%nproc=8
%mem=16000MB
#p B2PLYPD3/Def2QZVP 

cyanomethane

0 1
C  -6.590504  -1.108609   1.150261
C  -5.212129  -0.794454   0.992208
N  -4.100458  -0.537002   0.660756
H  -6.736233  -1.229331   2.146475
H  -6.761465  -2.103042   0.608730
H  -7.227856  -0.264923   0.717712
