%chk=/home/boittier/MDCM/nms_sampling/cyanomethane_geom.xyz.dir/cyanomethane_1651.chk
%nproc=8
%mem=16000MB
#p B2PLYPD3/Def2QZVP 

cyanomethane

0 1
C  -6.593258  -1.111504   1.164185
C  -5.202075  -0.806812   0.921033
N  -4.089441  -0.525543   0.694596
H  -6.776552  -1.237048   2.227074
H  -6.993645  -2.041065   0.652970
H  -7.195879  -0.315620   0.791859

