%chk=/home/boittier/MDCM/nms_sampling/cyanomethane_geom.xyz.dir/cyanomethane_2495.chk
%nproc=8
%mem=16000MB
#p B2PLYPD3/Def2QZVP 

cyanomethane

0 1
C  -6.596378  -1.108830   1.176966
C  -5.201068  -0.791530   0.940614
N  -4.084320  -0.536016   0.679443
H  -6.693568  -1.284339   2.203170
H  -7.000097  -1.991481   0.539986
H  -7.321482  -0.370131   0.747625

