%chk=/home/boittier/MDCM/nms_sampling/cyanomethane_geom.xyz.dir/cyanomethane_960.chk
%nproc=8
%mem=16000MB
#p B2PLYPD3/Def2QZVP 

cyanomethane

0 1
C  -6.596938  -1.115645   1.157354
C  -5.202124  -0.793356   0.927653
N  -4.096398  -0.536572   0.692554
H  -6.748421  -1.205917   2.243579
H  -6.838912  -2.033612   0.673813
H  -7.238176  -0.319948   0.781783
