%chk=/home/boittier/MDCM/nms_sampling/cyanomethane_geom.xyz.dir/cyanomethane_3480.chk
%nproc=8
%mem=16000MB
#p B2PLYPD3/Def2QZVP 

cyanomethane

0 1
C  -6.595160  -1.120477   1.145186
C  -5.209318  -0.766669   0.914808
N  -4.094838  -0.551811   0.702356
H  -6.806603  -1.267643   2.187073
H  -6.736860  -2.025442   0.742692
H  -7.234679  -0.313597   0.910063
