%chk=/home/boittier/MDCM/nms_sampling/cyanomethane_geom.xyz.dir/cyanomethane_1173.chk
%nproc=8
%mem=16000MB
#p B2PLYPD3/Def2QZVP 

cyanomethane

0 1
C  -6.596635  -1.106815   1.171513
C  -5.201686  -0.800188   0.882891
N  -4.097246  -0.533674   0.714764
H  -6.749080  -1.251411   2.252458
H  -6.848128  -2.046817   0.677621
H  -7.223854  -0.332977   0.821364
