%chk=/home/boittier/MDCM/nms_sampling/cyanomethane_geom.xyz.dir/cyanomethane_850.chk
%nproc=8
%mem=16000MB
#p B2PLYPD3/Def2QZVP 

cyanomethane

0 1
C  -6.600945  -1.116756   1.170831
C  -5.197519  -0.787331   0.919016
N  -4.090917  -0.539011   0.694940
H  -6.750257  -1.225600   2.223269
H  -6.895326  -2.050093   0.629567
H  -7.262882  -0.305072   0.757595
