%chk=/home/boittier/MDCM/nms_sampling/cyanomethane_geom.xyz.dir/cyanomethane_1566.chk
%nproc=8
%mem=16000MB
#p B2PLYPD3/Def2QZVP 

cyanomethane

0 1
C  -6.601021  -1.101835   1.165324
C  -5.199971  -0.807259   0.931019
N  -4.085946  -0.530391   0.689432
H  -6.758697  -1.242338   2.258217
H  -6.896165  -2.068351   0.614024
H  -7.294630  -0.326357   0.744979
