%chk=/home/boittier/MDCM/nms_sampling/cyanomethane_geom.xyz.dir/cyanomethane_2790.chk
%nproc=8
%mem=16000MB
#p B2PLYPD3/Def2QZVP 

cyanomethane

0 1
C  -6.618541  -1.132505   1.171115
C  -5.191357  -0.837199   0.906321
N  -4.086438  -0.508330   0.701791
H  -6.726505  -1.084663   2.182496
H  -6.958182  -1.959416   0.715952
H  -7.146395  -0.201854   0.780614
