%chk=/home/boittier/MDCM/nms_sampling/cyanomethane_geom.xyz.dir/cyanomethane_1051.chk
%nproc=8
%mem=16000MB
#p B2PLYPD3/Def2QZVP 

cyanomethane

0 1
C  -6.594242  -1.127787   1.168601
C  -5.204956  -0.770060   0.900437
N  -4.097160  -0.548298   0.705791
H  -6.754057  -1.188884   2.236024
H  -6.826335  -2.030504   0.685871
H  -7.231594  -0.320307   0.775295

