%chk=/home/boittier/MDCM/nms_sampling/cyanomethane_geom.xyz.dir/cyanomethane_2367.chk
%nproc=8
%mem=16000MB
#p B2PLYPD3/Def2QZVP 

cyanomethane

0 1
C  -6.586928  -1.115090   1.151388
C  -5.202905  -0.787297   0.943901
N  -4.102660  -0.541383   0.685573
H  -6.787291  -1.182987   2.220969
H  -6.793437  -2.019345   0.691325
H  -7.270074  -0.368969   0.757366

