%chk=/home/boittier/MDCM/nms_sampling/cyanomethane_geom.xyz.dir/cyanomethane_1724.chk
%nproc=8
%mem=16000MB
#p B2PLYPD3/Def2QZVP 

cyanomethane

0 1
C  -6.601139  -1.118447   1.171102
C  -5.206541  -0.791177   0.926551
N  -4.095092  -0.537147   0.688058
H  -6.619484  -1.172804   2.207062
H  -6.880883  -2.049149   0.672622
H  -7.238764  -0.325834   0.728182
