%chk=/home/boittier/MDCM/nms_sampling/cyanomethane_geom.xyz.dir/cyanomethane_1010.chk
%nproc=8
%mem=16000MB
#p B2PLYPD3/Def2QZVP 

cyanomethane

0 1
C  -6.597816  -1.119090   1.172442
C  -5.202769  -0.776851   0.899208
N  -4.097179  -0.546032   0.705820
H  -6.737108  -1.206195   2.220521
H  -6.815019  -2.053098   0.679743
H  -7.242815  -0.333202   0.766657
