%chk=/home/boittier/MDCM/nms_sampling/cyanomethane_geom.xyz.dir/cyanomethane_1571.chk
%nproc=8
%mem=16000MB
#p B2PLYPD3/Def2QZVP 

cyanomethane

0 1
C  -6.596749  -1.113399   1.174201
C  -5.200093  -0.809986   0.899815
N  -4.087405  -0.525050   0.704843
H  -6.774929  -1.252954   2.231416
H  -6.970378  -2.016553   0.620268
H  -7.230581  -0.274131   0.814752
