%chk=/home/boittier/MDCM/nms_sampling/cyanomethane_geom.xyz.dir/cyanomethane_2124.chk
%nproc=8
%mem=16000MB
#p B2PLYPD3/Def2QZVP 

cyanomethane

0 1
C  -6.596386  -1.116614   1.174711
C  -5.196069  -0.812427   0.905149
N  -4.091943  -0.524767   0.702014
H  -6.775535  -1.180840   2.188199
H  -6.946185  -2.005157   0.673026
H  -7.244038  -0.304783   0.772402

