%chk=/home/boittier/MDCM/nms_sampling/cyanomethane_geom.xyz.dir/cyanomethane_2335.chk
%nproc=8
%mem=16000MB
#p B2PLYPD3/Def2QZVP 

cyanomethane

0 1
C  -6.583558  -1.108571   1.173441
C  -5.202415  -0.793234   0.924699
N  -4.101515  -0.534661   0.689028
H  -6.685324  -1.267400   2.219220
H  -6.971854  -2.032661   0.602616
H  -7.254281  -0.357745   0.765957

