%chk=/home/boittier/MDCM/nms_sampling/cyanomethane_geom.xyz.dir/cyanomethane_3257.chk
%nproc=8
%mem=16000MB
#p B2PLYPD3/Def2QZVP 

cyanomethane

0 1
C  -6.598154  -1.082404   1.150539
C  -5.203086  -0.868801   0.935172
N  -4.102137  -0.494825   0.692961
H  -6.787510  -1.279756   2.208742
H  -6.866059  -2.076614   0.661486
H  -7.063741  -0.262583   0.844195
