%chk=/home/boittier/MDCM/nms_sampling/cyanomethane_geom.xyz.dir/cyanomethane_2508.chk
%nproc=8
%mem=16000MB
#p B2PLYPD3/Def2QZVP 

cyanomethane

0 1
C  -6.600597  -1.157711   1.157391
C  -5.194398  -0.717707   0.896469
N  -4.091028  -0.574650   0.709016
H  -6.823969  -1.099117   2.308681
H  -6.836656  -2.013208   0.757287
H  -7.288626  -0.347930   0.749115
