%chk=/home/boittier/MDCM/nms_sampling/cyanomethane_geom.xyz.dir/cyanomethane_2699.chk
%nproc=8
%mem=16000MB
#p B2PLYPD3/Def2QZVP 

cyanomethane

0 1
C  -6.598657  -1.133921   1.169098
C  -5.196871  -0.789745   0.912642
N  -4.084858  -0.532717   0.702925
H  -6.920262  -1.147337   2.249777
H  -6.953408  -1.957591   0.630702
H  -7.157480  -0.336329   0.723161

