%chk=/home/boittier/MDCM/nms_sampling/cyanomethane_geom.xyz.dir/cyanomethane_3595.chk
%nproc=8
%mem=16000MB
#p B2PLYPD3/Def2QZVP 

cyanomethane

0 1
C  -6.595868  -1.123070   1.136572
C  -5.213636  -0.729616   0.910914
N  -4.101950  -0.574890   0.703286
H  -6.711949  -1.252972   2.286093
H  -6.627397  -2.058413   0.785011
H  -7.281514  -0.398144   0.885264
