%chk=/home/boittier/MDCM/nms_sampling/cyanomethane_geom.xyz.dir/cyanomethane_2407.chk
%nproc=8
%mem=16000MB
#p B2PLYPD3/Def2QZVP 

cyanomethane

0 1
C  -6.585789  -1.116935   1.182925
C  -5.203972  -0.811403   0.912966
N  -4.104933  -0.523651   0.695462
H  -6.663676  -1.221949   2.277151
H  -6.958545  -2.021125   0.545895
H  -7.196835  -0.258022   0.725664

