%chk=/home/boittier/MDCM/nms_sampling/cyanomethane_geom.xyz.dir/cyanomethane_1959.chk
%nproc=8
%mem=16000MB
#p B2PLYPD3/Def2QZVP 

cyanomethane

0 1
C  -6.590878  -1.130028   1.158504
C  -5.200979  -0.759718   0.931268
N  -4.095824  -0.549485   0.689488
H  -6.769578  -1.268791   2.229794
H  -6.940409  -2.019806   0.624782
H  -7.208243  -0.304013   0.819974

