%chk=/home/boittier/MDCM/nms_sampling/cyanomethane_geom.xyz.dir/cyanomethane_1849.chk
%nproc=8
%mem=16000MB
#p B2PLYPD3/Def2QZVP 

cyanomethane

0 1
C  -6.599749  -1.130095   1.171075
C  -5.201797  -0.746397   0.901848
N  -4.097412  -0.559850   0.706530
H  -6.792770  -1.231238   2.212610
H  -6.796927  -2.081666   0.660080
H  -7.189092  -0.312079   0.766504

