%chk=/home/boittier/MDCM/nms_sampling/cyanomethane_geom.xyz.dir/cyanomethane_307.chk
%nproc=8
%mem=16000MB
#p B2PLYPD3/Def2QZVP 

cyanomethane

0 1
C  -6.599761  -1.110271   1.162798
C  -5.201192  -0.797981   0.886242
N  -4.089701  -0.534814   0.714803
H  -6.807392  -1.227693   2.258206
H  -6.849414  -2.018389   0.715270
H  -7.238586  -0.358578   0.836481

