%chk=/home/boittier/MDCM/nms_sampling/cyanomethane_geom.xyz.dir/cyanomethane_1309.chk
%nproc=8
%mem=16000MB
#p B2PLYPD3/Def2QZVP 

cyanomethane

0 1
C  -6.595704  -1.116464   1.168546
C  -5.208289  -0.763155   0.896168
N  -4.098305  -0.554211   0.704604
H  -6.642883  -1.252854   2.244214
H  -6.815560  -2.055926   0.691400
H  -7.279098  -0.362058   0.815109

