%chk=/home/boittier/MDCM/nms_sampling/cyanomethane_geom.xyz.dir/cyanomethane_1435.chk
%nproc=8
%mem=16000MB
#p B2PLYPD3/Def2QZVP 

cyanomethane

0 1
C  -6.594676  -1.129332   1.158291
C  -5.202266  -0.773563   0.939266
N  -4.099315  -0.544235   0.682784
H  -6.663966  -1.215382   2.172591
H  -6.903118  -2.009905   0.681876
H  -7.240028  -0.292172   0.817388

