%chk=/home/boittier/MDCM/nms_sampling/cyanomethane_geom.xyz.dir/cyanomethane_680.chk
%nproc=8
%mem=16000MB
#p B2PLYPD3/Def2QZVP 

cyanomethane

0 1
C  -6.597540  -1.114647   1.167374
C  -5.204304  -0.797467   0.921696
N  -4.095698  -0.533941   0.693806
H  -6.714209  -1.208700   2.212165
H  -6.860031  -2.032979   0.655547
H  -7.226884  -0.316121   0.767079

