%chk=/home/boittier/MDCM/nms_sampling/cyanomethane_geom.xyz.dir/cyanomethane_2608.chk
%nproc=8
%mem=16000MB
#p B2PLYPD3/Def2QZVP 

cyanomethane

0 1
C  -6.619570  -1.122063   1.181604
C  -5.199593  -0.816689   0.880521
N  -4.079927  -0.525014   0.715438
H  -6.741403  -1.126300   2.190314
H  -6.832103  -2.042787   0.713588
H  -7.236609  -0.222448   0.762490

