%chk=/home/boittier/MDCM/nms_sampling/cyanomethane_geom.xyz.dir/cyanomethane_3571.chk
%nproc=8
%mem=16000MB
#p B2PLYPD3/Def2QZVP 

cyanomethane

0 1
C  -6.601785  -1.117859   1.147908
C  -5.201357  -0.737469   0.927637
N  -4.085622  -0.567980   0.697723
H  -6.898702  -1.297274   2.344963
H  -6.744252  -2.111768   0.611976
H  -7.285812  -0.343978   0.777482
