%chk=/home/boittier/MDCM/nms_sampling/cyanomethane_geom.xyz.dir/cyanomethane_1711.chk
%nproc=8
%mem=16000MB
#p B2PLYPD3/Def2QZVP 

cyanomethane

0 1
C  -6.598205  -1.108108   1.164667
C  -5.197398  -0.834662   0.917691
N  -4.091318  -0.513962   0.699505
H  -6.829569  -1.195374   2.235212
H  -6.891346  -2.027607   0.644133
H  -7.216940  -0.249087   0.778530

