%chk=/home/boittier/MDCM/nms_sampling/cyanomethane_geom.xyz.dir/cyanomethane_1872.chk
%nproc=8
%mem=16000MB
#p B2PLYPD3/Def2QZVP 

cyanomethane

0 1
C  -6.583869  -1.117452   1.174400
C  -5.206382  -0.776398   0.908580
N  -4.096857  -0.546898   0.699400
H  -6.742929  -1.188058   2.229063
H  -6.869813  -2.055909   0.668393
H  -7.312636  -0.361602   0.723653
