%chk=/home/boittier/MDCM/nms_sampling/cyanomethane_geom.xyz.dir/cyanomethane_351.chk
%nproc=8
%mem=16000MB
#p B2PLYPD3/Def2QZVP 

cyanomethane

0 1
C  -6.604368  -1.116363   1.161763
C  -5.198047  -0.793659   0.927577
N  -4.091548  -0.534878   0.692186
H  -6.753665  -1.211084   2.242855
H  -6.883179  -2.061793   0.653274
H  -7.215318  -0.295078   0.762142
