%chk=/home/boittier/MDCM/nms_sampling/cyanomethane_geom.xyz.dir/cyanomethane_2774.chk
%nproc=8
%mem=16000MB
#p B2PLYPD3/Def2QZVP 

cyanomethane

0 1
C  -6.571536  -1.110372   1.170179
C  -5.205989  -0.765440   0.913542
N  -4.107114  -0.560202   0.697396
H  -6.738225  -1.226626   2.236511
H  -6.711674  -2.081809   0.652020
H  -7.486027  -0.328253   0.749752
