%chk=/home/boittier/MDCM/nms_sampling/cyanomethane_geom.xyz.dir/cyanomethane_2186.chk
%nproc=8
%mem=16000MB
#p B2PLYPD3/Def2QZVP 

cyanomethane

0 1
C  -6.585667  -1.116699   1.177100
C  -5.206225  -0.773301   0.911309
N  -4.097411  -0.545038   0.696333
H  -6.699143  -1.285438   2.244337
H  -6.941738  -2.036538   0.579328
H  -7.256156  -0.333444   0.776205
