%chk=/home/boittier/MDCM/nms_sampling/cyanomethane_geom.xyz.dir/cyanomethane_2675.chk
%nproc=8
%mem=16000MB
#p B2PLYPD3/Def2QZVP 

cyanomethane

0 1
C  -6.595645  -1.129367   1.167410
C  -5.212584  -0.771964   0.853700
N  -4.102478  -0.545901   0.731179
H  -6.727319  -1.239356   2.274259
H  -6.778355  -1.979348   0.726345
H  -7.121156  -0.320265   0.902783

