%chk=/home/boittier/MDCM/nms_sampling/cyanomethane_geom.xyz.dir/cyanomethane_1886.chk
%nproc=8
%mem=16000MB
#p B2PLYPD3/Def2QZVP 

cyanomethane

0 1
C  -6.603833  -1.132341   1.159924
C  -5.199709  -0.767826   0.936906
N  -4.097025  -0.548081   0.687021
H  -6.724430  -1.166602   2.217540
H  -6.830111  -2.030751   0.671856
H  -7.207708  -0.307841   0.741831
