%chk=/home/boittier/MDCM/nms_sampling/cyanomethane_geom.xyz.dir/cyanomethane_3550.chk
%nproc=8
%mem=16000MB
#p B2PLYPD3/Def2QZVP 

cyanomethane

0 1
C  -6.603026  -1.123500   1.182181
C  -5.204440  -0.744841   0.905491
N  -4.096086  -0.557625   0.699039
H  -6.659835  -1.314007   2.206724
H  -6.913710  -2.075665   0.580590
H  -7.152071  -0.343813   0.774258

