%chk=/home/boittier/MDCM/nms_sampling/cyanomethane_geom.xyz.dir/cyanomethane_2974.chk
%nproc=8
%mem=16000MB
#p B2PLYPD3/Def2QZVP 

cyanomethane

0 1
C  -6.577789  -1.098764   1.189384
C  -5.201743  -0.843234   0.860316
N  -4.103286  -0.516139   0.727079
H  -6.833173  -1.141853   2.235279
H  -6.801527  -1.974439   0.681224
H  -7.332471  -0.365807   0.737005
