%chk=/home/boittier/MDCM/nms_sampling/cyanomethane_geom.xyz.dir/cyanomethane_3128.chk
%nproc=8
%mem=16000MB
#p B2PLYPD3/Def2QZVP 

cyanomethane

0 1
C  -6.604571  -1.114303   1.206245
C  -5.193147  -0.814102   0.836953
N  -4.083746  -0.524655   0.737041
H  -6.829949  -1.204682   2.262504
H  -6.948647  -2.067500   0.603639
H  -7.237680  -0.243806   0.733822
