%chk=/home/boittier/MDCM/nms_sampling/cyanomethane_geom.xyz.dir/cyanomethane_598.chk
%nproc=8
%mem=16000MB
#p B2PLYPD3/Def2QZVP 

cyanomethane

0 1
C  -6.592435  -1.109080   1.170010
C  -5.203072  -0.815310   0.910623
N  -4.095305  -0.525204   0.699515
H  -6.737768  -1.189518   2.240738
H  -6.894246  -2.031992   0.664224
H  -7.251772  -0.318949   0.756971
