%chk=/home/boittier/MDCM/nms_sampling/cyanomethane_geom.xyz.dir/cyanomethane_2514.chk
%nproc=8
%mem=16000MB
#p B2PLYPD3/Def2QZVP 

cyanomethane

0 1
C  -6.597793  -1.111155   1.150571
C  -5.203086  -0.791742   0.904735
N  -4.086063  -0.541344   0.708536
H  -6.885281  -1.153492   2.268720
H  -6.765634  -2.028003   0.772268
H  -7.298851  -0.407495   0.780600

