%chk=/home/boittier/MDCM/nms_sampling/cyanomethane_geom.xyz.dir/cyanomethane_49.chk
%nproc=8
%mem=16000MB
#p B2PLYPD3/Def2QZVP 

cyanomethane

0 1
C  -6.587490  -1.109801   1.165897
C  -5.202238  -0.783282   0.914288
N  -4.098523  -0.544279   0.698143
H  -6.759614  -1.231457   2.225323
H  -6.835571  -2.069757   0.673764
H  -7.312406  -0.343611   0.773628

