%chk=/home/boittier/MDCM/nms_sampling/cyanomethane_geom.xyz.dir/cyanomethane_489.chk
%nproc=8
%mem=16000MB
#p B2PLYPD3/Def2QZVP 

cyanomethane

0 1
C  -6.595925  -1.120071   1.173185
C  -5.205241  -0.781304   0.905126
N  -4.095776  -0.543113   0.701485
H  -6.709910  -1.194898   2.212518
H  -6.847495  -2.043735   0.677017
H  -7.250141  -0.328581   0.758989
