%chk=/home/boittier/MDCM/nms_sampling/cyanomethane_geom.xyz.dir/cyanomethane_3513.chk
%nproc=8
%mem=16000MB
#p B2PLYPD3/Def2QZVP 

cyanomethane

0 1
C  -6.598290  -1.104186   1.136586
C  -5.199992  -0.794280   0.997776
N  -4.081298  -0.537897   0.658625
H  -6.840480  -1.183327   2.237001
H  -6.871545  -2.073417   0.662957
H  -7.338016  -0.394167   0.688482

