%chk=/home/boittier/MDCM/nms_sampling/cyanomethane_geom.xyz.dir/cyanomethane_1286.chk
%nproc=8
%mem=16000MB
#p B2PLYPD3/Def2QZVP 

cyanomethane

0 1
C  -6.613984  -1.110996   1.158880
C  -5.200701  -0.785687   0.938526
N  -4.085545  -0.542924   0.685034
H  -6.685578  -1.219905   2.244713
H  -6.807982  -2.074272   0.655661
H  -7.295690  -0.321253   0.754354
