%chk=/home/boittier/MDCM/nms_sampling/cyanomethane_geom.xyz.dir/cyanomethane_3371.chk
%nproc=8
%mem=16000MB
#p B2PLYPD3/Def2QZVP 

cyanomethane

0 1
C  -6.594707  -1.116240   1.166576
C  -5.203915  -0.831092   0.894470
N  -4.102844  -0.509927   0.706512
H  -6.663950  -1.188246   2.166336
H  -7.007636  -2.008812   0.759990
H  -7.063324  -0.282654   0.861614

