%chk=/home/boittier/MDCM/nms_sampling/cyanomethane_geom.xyz.dir/cyanomethane_2944.chk
%nproc=8
%mem=16000MB
#p B2PLYPD3/Def2QZVP 

cyanomethane

0 1
C  -6.592957  -1.106041   1.152267
C  -5.205465  -0.812989   0.869061
N  -4.108286  -0.525677   0.728341
H  -6.840287  -1.262642   2.235781
H  -6.746694  -1.946038   0.763964
H  -7.078534  -0.393046   0.945689

