%chk=/home/boittier/MDCM/nms_sampling/cyanomethane_geom.xyz.dir/cyanomethane_2895.chk
%nproc=8
%mem=16000MB
#p B2PLYPD3/Def2QZVP 

cyanomethane

0 1
C  -6.600309  -1.120664   1.158089
C  -5.194038  -0.744359   0.904572
N  -4.093966  -0.565800   0.710711
H  -6.939136  -1.269683   2.327564
H  -6.687363  -2.085056   0.612530
H  -7.291645  -0.323777   0.772635
