%chk=/home/boittier/MDCM/nms_sampling/cyanomethane_geom.xyz.dir/cyanomethane_1353.chk
%nproc=8
%mem=16000MB
#p B2PLYPD3/Def2QZVP 

cyanomethane

0 1
C  -6.591611  -1.119476   1.157972
C  -5.200676  -0.757684   0.912767
N  -4.090701  -0.557061   0.702518
H  -6.867615  -1.267037   2.250843
H  -6.802873  -2.067977   0.657381
H  -7.315083  -0.316979   0.813383
