%chk=/home/boittier/MDCM/nms_sampling/cyanomethane_geom.xyz.dir/cyanomethane_2410.chk
%nproc=8
%mem=16000MB
#p B2PLYPD3/Def2QZVP 

cyanomethane

0 1
C  -6.575906  -1.102358   1.169350
C  -5.202487  -0.811774   0.851912
N  -4.102250  -0.529663   0.740246
H  -7.036271  -1.250380   2.268207
H  -6.747147  -2.052816   0.694793
H  -7.208324  -0.309624   0.844575
