%chk=/home/boittier/MDCM/nms_sampling/cyanomethane_geom.xyz.dir/cyanomethane_3344.chk
%nproc=8
%mem=16000MB
#p B2PLYPD3/Def2QZVP 

cyanomethane

0 1
C  -6.601959  -1.122408   1.157387
C  -5.193178  -0.776480   0.885041
N  -4.084362  -0.549143   0.721181
H  -6.988310  -1.189347   2.329688
H  -6.733129  -1.985527   0.680480
H  -7.322571  -0.350779   0.797962
