%chk=/home/boittier/MDCM/nms_sampling/cyanomethane_geom.xyz.dir/cyanomethane_238.chk
%nproc=8
%mem=16000MB
#p B2PLYPD3/Def2QZVP 

cyanomethane

0 1
C  -6.589448  -1.118265   1.172220
C  -5.202979  -0.771146   0.900328
N  -4.099037  -0.547935   0.703525
H  -6.721417  -1.239054   2.236178
H  -6.882776  -2.041636   0.661332
H  -7.263185  -0.356901   0.784233
