%chk=/home/boittier/MDCM/nms_sampling/cyanomethane_geom.xyz.dir/cyanomethane_1095.chk
%nproc=8
%mem=16000MB
#p B2PLYPD3/Def2QZVP 

cyanomethane

0 1
C  -6.597206  -1.119913   1.162322
C  -5.201793  -0.785404   0.923379
N  -4.091627  -0.539397   0.693608
H  -6.759596  -1.214671   2.201126
H  -6.888761  -2.028229   0.676961
H  -7.242899  -0.319024   0.792608
