%chk=/home/boittier/MDCM/nms_sampling/cyanomethane_geom.xyz.dir/cyanomethane_2398.chk
%nproc=8
%mem=16000MB
#p B2PLYPD3/Def2QZVP 

cyanomethane

0 1
C  -6.593146  -1.129598   1.161137
C  -5.199004  -0.780225   0.948056
N  -4.091899  -0.540958   0.679548
H  -6.754723  -1.160930   2.188549
H  -6.938504  -1.999203   0.662807
H  -7.278246  -0.324424   0.736679

