%chk=/home/boittier/MDCM/nms_sampling/cyanomethane_geom.xyz.dir/cyanomethane_513.chk
%nproc=8
%mem=16000MB
#p B2PLYPD3/Def2QZVP 

cyanomethane

0 1
C  -6.602529  -1.102386   1.167396
C  -5.201100  -0.816229   0.908115
N  -4.091705  -0.524472   0.701911
H  -6.745842  -1.259513   2.233391
H  -6.873489  -2.036061   0.642585
H  -7.215877  -0.313324   0.812198
