%chk=/home/boittier/MDCM/nms_sampling/cyanomethane_geom.xyz.dir/cyanomethane_3009.chk
%nproc=8
%mem=16000MB
#p B2PLYPD3/Def2QZVP 

cyanomethane

0 1
C  -6.599308  -1.106889   1.181915
C  -5.207960  -0.751210   0.880931
N  -4.098689  -0.565045   0.715006
H  -6.705189  -1.336000   2.251023
H  -6.665183  -2.115471   0.590811
H  -7.322830  -0.317866   0.798856
