%chk=/home/boittier/MDCM/nms_sampling/cyanomethane_geom.xyz.dir/cyanomethane_1765.chk
%nproc=8
%mem=16000MB
#p B2PLYPD3/Def2QZVP 

cyanomethane

0 1
C  -6.591729  -1.109277   1.172235
C  -5.203928  -0.812006   0.911141
N  -4.101824  -0.528570   0.698293
H  -6.684593  -1.193587   2.198127
H  -6.836330  -2.054165   0.677247
H  -7.268149  -0.283787   0.769090

