%chk=/home/boittier/MDCM/nms_sampling/cyanomethane_geom.xyz.dir/cyanomethane_2938.chk
%nproc=8
%mem=16000MB
#p B2PLYPD3/Def2QZVP 

cyanomethane

0 1
C  -6.598320  -1.099744   1.174699
C  -5.198892  -0.798791   0.850804
N  -4.083338  -0.541741   0.733510
H  -6.872459  -1.176873   2.301431
H  -6.762261  -2.059037   0.756105
H  -7.397101  -0.416609   0.772107
