%chk=/home/boittier/MDCM/nms_sampling/cyanomethane_geom.xyz.dir/cyanomethane_1627.chk
%nproc=8
%mem=16000MB
#p B2PLYPD3/Def2QZVP 

cyanomethane

0 1
C  -6.583908  -1.128118   1.163601
C  -5.203794  -0.757790   0.913821
N  -4.100958  -0.555169   0.697786
H  -6.747362  -1.188143   2.240521
H  -6.861804  -2.059426   0.700337
H  -7.288184  -0.337283   0.761543
