%chk=/home/boittier/MDCM/nms_sampling/cyanomethane_geom.xyz.dir/cyanomethane_1850.chk
%nproc=8
%mem=16000MB
#p B2PLYPD3/Def2QZVP 

cyanomethane

0 1
C  -6.611426  -1.134550   1.158289
C  -5.199340  -0.753526   0.917795
N  -4.086652  -0.555897   0.696321
H  -6.728551  -1.182324   2.220490
H  -6.850448  -2.069711   0.728176
H  -7.238314  -0.296556   0.788717

