%chk=/home/boittier/MDCM/nms_sampling/cyanomethane_geom.xyz.dir/cyanomethane_2468.chk
%nproc=8
%mem=16000MB
#p B2PLYPD3/Def2QZVP 

cyanomethane

0 1
C  -6.585365  -1.110543   1.183181
C  -5.213335  -0.816715   0.848405
N  -4.103512  -0.530351   0.734414
H  -6.769331  -1.171367   2.241083
H  -6.679650  -2.036924   0.714089
H  -7.279669  -0.254890   0.807474
