%chk=/home/boittier/MDCM/nms_sampling/cyanomethane_geom.xyz.dir/cyanomethane_2936.chk
%nproc=8
%mem=16000MB
#p B2PLYPD3/Def2QZVP 

cyanomethane

0 1
C  -6.611725  -1.123090   1.143384
C  -5.191995  -0.735087   0.904587
N  -4.088965  -0.568870   0.705863
H  -6.803438  -1.242076   2.216479
H  -6.783570  -2.062271   0.816194
H  -7.282771  -0.423576   0.878894

