%chk=/home/boittier/MDCM/nms_sampling/cyanomethane_geom.xyz.dir/cyanomethane_397.chk
%nproc=8
%mem=16000MB
#p B2PLYPD3/Def2QZVP 

cyanomethane

0 1
C  -6.588933  -1.114122   1.176361
C  -5.202773  -0.798288   0.903278
N  -4.097544  -0.533142   0.703280
H  -6.760253  -1.212502   2.219097
H  -6.899737  -2.051674   0.644608
H  -7.236897  -0.305281   0.755384

