%chk=/home/boittier/MDCM/nms_sampling/cyanomethane_geom.xyz.dir/cyanomethane_17.chk
%nproc=8
%mem=16000MB
#p B2PLYPD3/Def2QZVP 

cyanomethane

0 1
C  -6.590964  -1.119841   1.160618
C  -5.202703  -0.785028   0.926792
N  -4.098488  -0.538495   0.691487
H  -6.733994  -1.222809   2.238490
H  -6.909986  -2.037623   0.658772
H  -7.216306  -0.316342   0.784942
