%chk=/home/boittier/MDCM/nms_sampling/cyanomethane_geom.xyz.dir/cyanomethane_1550.chk
%nproc=8
%mem=16000MB
#p B2PLYPD3/Def2QZVP 

cyanomethane

0 1
C  -6.597741  -1.128107   1.157805
C  -5.201216  -0.795141   0.932211
N  -4.089413  -0.533630   0.690386
H  -6.790140  -1.150710   2.208234
H  -6.890825  -2.009501   0.694091
H  -7.242231  -0.274688   0.771200
