%chk=/home/boittier/MDCM/nms_sampling/cyanomethane_geom.xyz.dir/cyanomethane_3290.chk
%nproc=8
%mem=16000MB
#p B2PLYPD3/Def2QZVP 

cyanomethane

0 1
C  -6.624886  -1.124710   1.169430
C  -5.192028  -0.782984   0.965330
N  -4.087467  -0.542812   0.667187
H  -6.591196  -1.166396   2.164097
H  -6.835465  -2.032640   0.608599
H  -7.308756  -0.280186   0.690108
