%chk=/home/boittier/MDCM/nms_sampling/cyanomethane_geom.xyz.dir/cyanomethane_2657.chk
%nproc=8
%mem=16000MB
#p B2PLYPD3/Def2QZVP 

cyanomethane

0 1
C  -6.614893  -1.113649   1.194880
C  -5.200636  -0.785384   0.851100
N  -4.082654  -0.541556   0.728718
H  -6.720558  -1.220364   2.249955
H  -6.862538  -2.153364   0.669669
H  -7.231674  -0.257754   0.746280
