%chk=/home/boittier/MDCM/nms_sampling/cyanomethane_geom.xyz.dir/cyanomethane_2038.chk
%nproc=8
%mem=16000MB
#p B2PLYPD3/Def2QZVP 

cyanomethane

0 1
C  -6.592724  -1.122759   1.179371
C  -5.207029  -0.777097   0.899788
N  -4.096914  -0.545157   0.702711
H  -6.688068  -1.193977   2.168909
H  -6.859618  -2.040365   0.684353
H  -7.259534  -0.323264   0.763704

