%chk=/home/boittier/MDCM/nms_sampling/cyanomethane_geom.xyz.dir/cyanomethane_473.chk
%nproc=8
%mem=16000MB
#p B2PLYPD3/Def2QZVP 

cyanomethane

0 1
C  -6.597325  -1.110224   1.159608
C  -5.204100  -0.816460   0.912234
N  -4.095314  -0.524742   0.701316
H  -6.760687  -1.189647   2.230579
H  -6.836655  -2.040565   0.708440
H  -7.213574  -0.291014   0.801728
