%chk=/home/boittier/MDCM/nms_sampling/cyanomethane_geom.xyz.dir/cyanomethane_626.chk
%nproc=8
%mem=16000MB
#p B2PLYPD3/Def2QZVP 

cyanomethane

0 1
C  -6.590154  -1.112150   1.168434
C  -5.202166  -0.811146   0.911147
N  -4.097652  -0.526823   0.699087
H  -6.733486  -1.192414   2.235431
H  -6.904565  -2.038585   0.672459
H  -7.250335  -0.299458   0.770989
