%chk=/home/boittier/MDCM/nms_sampling/cyanomethane_geom.xyz.dir/cyanomethane_2261.chk
%nproc=8
%mem=16000MB
#p B2PLYPD3/Def2QZVP 

cyanomethane

0 1
C  -6.581776  -1.114021   1.152899
C  -5.206243  -0.801958   0.928621
N  -4.100210  -0.530900   0.691851
H  -6.773084  -1.221825   2.220744
H  -6.892085  -1.950887   0.685988
H  -7.240751  -0.377540   0.834017
