%chk=/home/boittier/MDCM/nms_sampling/cyanomethane_geom.xyz.dir/cyanomethane_2065.chk
%nproc=8
%mem=16000MB
#p B2PLYPD3/Def2QZVP 

cyanomethane

0 1
C  -6.596930  -1.106886   1.173615
C  -5.202988  -0.797367   0.881861
N  -4.098879  -0.537941   0.714470
H  -6.716200  -1.207288   2.248151
H  -6.790089  -2.052006   0.706307
H  -7.273668  -0.356076   0.785328
