%chk=/home/boittier/MDCM/nms_sampling/cyanomethane_geom.xyz.dir/cyanomethane_1858.chk
%nproc=8
%mem=16000MB
#p B2PLYPD3/Def2QZVP 

cyanomethane

0 1
C  -6.599520  -1.109030   1.177153
C  -5.201581  -0.797656   0.864315
N  -4.099312  -0.534816   0.722293
H  -6.692879  -1.232279   2.240974
H  -6.856620  -2.031503   0.718516
H  -7.208384  -0.364930   0.831240

