%chk=/home/boittier/MDCM/nms_sampling/cyanomethane_geom.xyz.dir/cyanomethane_3596.chk
%nproc=8
%mem=16000MB
#p B2PLYPD3/Def2QZVP 

cyanomethane

0 1
C  -6.622459  -1.151823   1.163138
C  -5.196020  -0.717498   0.889474
N  -4.081420  -0.574382   0.712163
H  -6.772142  -1.138924   2.220041
H  -6.805876  -2.112165   0.790240
H  -7.217079  -0.282051   0.776389

