%chk=/home/boittier/MDCM/nms_sampling/cyanomethane_geom.xyz.dir/cyanomethane_2737.chk
%nproc=8
%mem=16000MB
#p B2PLYPD3/Def2QZVP 

cyanomethane

0 1
C  -6.607688  -1.104372   1.155745
C  -5.196989  -0.760933   0.891864
N  -4.078808  -0.554507   0.715809
H  -6.942618  -1.376046   2.219496
H  -6.811315  -2.077280   0.670959
H  -7.246245  -0.365022   0.911888

