%chk=/home/boittier/MDCM/nms_sampling/cyanomethane_geom.xyz.dir/cyanomethane_315.chk
%nproc=8
%mem=16000MB
#p B2PLYPD3/Def2QZVP 

cyanomethane

0 1
C  -6.588567  -1.116207   1.170587
C  -5.204976  -0.793348   0.923227
N  -4.096231  -0.535577   0.692317
H  -6.729360  -1.219158   2.223479
H  -6.906046  -2.058884   0.627585
H  -7.257834  -0.284487   0.752319

