%chk=/home/boittier/MDCM/nms_sampling/cyanomethane_geom.xyz.dir/cyanomethane_3129.chk
%nproc=8
%mem=16000MB
#p B2PLYPD3/Def2QZVP 

cyanomethane

0 1
C  -6.590335  -1.139152   1.143911
C  -5.201435  -0.771174   0.987402
N  -4.103561  -0.543427   0.660638
H  -6.706211  -1.149673   2.163758
H  -6.901935  -2.027467   0.678956
H  -7.203261  -0.255668   0.747743

