%chk=/home/boittier/MDCM/nms_sampling/cyanomethane_geom.xyz.dir/cyanomethane_233.chk
%nproc=8
%mem=16000MB
#p B2PLYPD3/Def2QZVP 

cyanomethane

0 1
C  -6.599852  -1.107714   1.161262
C  -5.200012  -0.806553   0.920043
N  -4.093657  -0.529048   0.697300
H  -6.785029  -1.247724   2.216749
H  -6.858819  -2.036819   0.655437
H  -7.209248  -0.310442   0.809581

