%chk=/home/boittier/MDCM/nms_sampling/cyanomethane_geom.xyz.dir/cyanomethane_3302.chk
%nproc=8
%mem=16000MB
#p B2PLYPD3/Def2QZVP 

cyanomethane

0 1
C  -6.616891  -1.114363   1.170680
C  -5.203855  -0.829634   0.904565
N  -4.084757  -0.509341   0.704922
H  -6.753823  -1.253245   2.232601
H  -6.969559  -1.983884   0.604371
H  -7.001773  -0.270044   0.824142
