%chk=/home/boittier/MDCM/nms_sampling/cyanomethane_geom.xyz.dir/cyanomethane_1107.chk
%nproc=8
%mem=16000MB
#p B2PLYPD3/Def2QZVP 

cyanomethane

0 1
C  -6.603338  -1.110477   1.168045
C  -5.199172  -0.815470   0.906912
N  -4.092062  -0.524697   0.701958
H  -6.733450  -1.197383   2.239060
H  -6.881847  -2.037567   0.674772
H  -7.228340  -0.294349   0.781825

