%chk=/home/boittier/MDCM/nms_sampling/cyanomethane_geom.xyz.dir/cyanomethane_1154.chk
%nproc=8
%mem=16000MB
#p B2PLYPD3/Def2QZVP 

cyanomethane

0 1
C  -6.604176  -1.115759   1.166982
C  -5.201652  -0.786861   0.925275
N  -4.089874  -0.539372   0.690111
H  -6.685227  -1.228812   2.175326
H  -6.890061  -2.035791   0.671207
H  -7.257621  -0.327369   0.791071

