%chk=/home/boittier/MDCM/nms_sampling/cyanomethane_geom.xyz.dir/cyanomethane_2570.chk
%nproc=8
%mem=16000MB
#p B2PLYPD3/Def2QZVP 

cyanomethane

0 1
C  -6.596096  -1.105557   1.183662
C  -5.204152  -0.773944   0.872430
N  -4.105011  -0.553125   0.722215
H  -6.771256  -1.257243   2.215644
H  -6.645110  -2.158533   0.659013
H  -7.271738  -0.279644   0.759821

