%chk=/home/boittier/MDCM/nms_sampling/cyanomethane_geom.xyz.dir/cyanomethane_3387.chk
%nproc=8
%mem=16000MB
#p B2PLYPD3/Def2QZVP 

cyanomethane

0 1
C  -6.605992  -1.110960   1.166448
C  -5.193459  -0.827472   0.916173
N  -4.090100  -0.512035   0.699153
H  -6.817243  -1.242851   2.227989
H  -7.000090  -1.960673   0.612876
H  -7.091644  -0.332345   0.807094

