%chk=/home/boittier/MDCM/nms_sampling/cyanomethane_geom.xyz.dir/cyanomethane_1118.chk
%nproc=8
%mem=16000MB
#p B2PLYPD3/Def2QZVP 

cyanomethane

0 1
C  -6.591897  -1.110888   1.166366
C  -5.203480  -0.788500   0.923608
N  -4.095268  -0.540119   0.691887
H  -6.719275  -1.243989   2.196655
H  -6.869646  -2.042922   0.656183
H  -7.295520  -0.332843   0.789810
