%chk=/home/boittier/MDCM/nms_sampling/cyanomethane_geom.xyz.dir/cyanomethane_1834.chk
%nproc=8
%mem=16000MB
#p B2PLYPD3/Def2QZVP 

cyanomethane

0 1
C  -6.594862  -1.122337   1.171058
C  -5.198763  -0.755068   0.890488
N  -4.094409  -0.557087   0.706940
H  -6.695881  -1.251674   2.272462
H  -6.899597  -2.034657   0.672152
H  -7.322057  -0.371465   0.809534

