%chk=/home/boittier/MDCM/nms_sampling/cyanomethane_geom.xyz.dir/cyanomethane_788.chk
%nproc=8
%mem=16000MB
#p B2PLYPD3/Def2QZVP 

cyanomethane

0 1
C  -6.588737  -1.113292   1.156855
C  -5.204842  -0.797403   0.921401
N  -4.097263  -0.534014   0.694615
H  -6.737792  -1.222132   2.230725
H  -6.886943  -2.028125   0.695950
H  -7.253444  -0.324600   0.818425

