%chk=/home/boittier/MDCM/nms_sampling/cyanomethane_geom.xyz.dir/cyanomethane_78.chk
%nproc=8
%mem=16000MB
#p B2PLYPD3/Def2QZVP 

cyanomethane

0 1
C  -6.596968  -1.111983   1.158179
C  -5.201372  -0.802064   0.919042
N  -4.090280  -0.531046   0.698025
H  -6.807064  -1.240390   2.250072
H  -6.880584  -2.014608   0.653314
H  -7.231890  -0.316615   0.815141

