%chk=/home/boittier/MDCM/nms_sampling/cyanomethane_geom.xyz.dir/cyanomethane_1112.chk
%nproc=8
%mem=16000MB
#p B2PLYPD3/Def2QZVP 

cyanomethane

0 1
C  -6.599371  -1.108326   1.166196
C  -5.200833  -0.786558   0.904935
N  -4.090392  -0.541124   0.703526
H  -6.768509  -1.263094   2.259092
H  -6.857097  -2.062939   0.650597
H  -7.269449  -0.337745   0.798268

