%chk=/home/boittier/MDCM/nms_sampling/cyanomethane_geom.xyz.dir/cyanomethane_365.chk
%nproc=8
%mem=16000MB
#p B2PLYPD3/Def2QZVP 

cyanomethane

0 1
C  -6.596203  -1.105337   1.168842
C  -5.202579  -0.797288   0.896139
N  -4.097602  -0.534879   0.708699
H  -6.761660  -1.271751   2.222267
H  -6.838362  -2.069191   0.666801
H  -7.209701  -0.317441   0.822590

