%chk=/home/boittier/MDCM/nms_sampling/cyanomethane_geom.xyz.dir/cyanomethane_12.chk
%nproc=8
%mem=16000MB
#p B2PLYPD3/Def2QZVP 

cyanomethane

0 1
C  -6.594558  -1.110776   1.168924
C  -5.205243  -0.782821   0.897721
N  -4.096994  -0.544458   0.706740
H  -6.733475  -1.228463   2.228982
H  -6.803328  -2.073338   0.694662
H  -7.269958  -0.340648   0.788512

