%chk=/home/boittier/MDCM/nms_sampling/cyanomethane_geom.xyz.dir/cyanomethane_962.chk
%nproc=8
%mem=16000MB
#p B2PLYPD3/Def2QZVP 

cyanomethane

0 1
C  -6.598356  -1.116366   1.174630
C  -5.201107  -0.794362   0.878573
N  -4.090020  -0.536075   0.715956
H  -6.759401  -1.207507   2.264609
H  -6.890171  -2.026811   0.685596
H  -7.259034  -0.326774   0.798032
