%chk=/home/boittier/MDCM/nms_sampling/cyanomethane_geom.xyz.dir/cyanomethane_3548.chk
%nproc=8
%mem=16000MB
#p B2PLYPD3/Def2QZVP 

cyanomethane

0 1
C  -6.599483  -1.105391   1.180532
C  -5.191957  -0.736804   0.903690
N  -4.084214  -0.572663   0.702877
H  -6.832364  -1.334375   2.215495
H  -6.796642  -2.150660   0.587442
H  -7.457441  -0.361628   0.747699

