%chk=/home/boittier/MDCM/nms_sampling/cyanomethane_geom.xyz.dir/cyanomethane_3552.chk
%nproc=8
%mem=16000MB
#p B2PLYPD3/Def2QZVP 

cyanomethane

0 1
C  -6.593607  -1.105828   1.173665
C  -5.213878  -0.781428   0.860243
N  -4.101986  -0.543239   0.731530
H  -6.832767  -1.331694   2.248855
H  -6.711632  -2.049489   0.642009
H  -7.099471  -0.344337   0.869893

