%chk=/home/boittier/MDCM/nms_sampling/cyanomethane_geom.xyz.dir/cyanomethane_2485.chk
%nproc=8
%mem=16000MB
#p B2PLYPD3/Def2QZVP 

cyanomethane

0 1
C  -6.601390  -1.097109   1.175414
C  -5.190735  -0.847902   0.885500
N  -4.083920  -0.511473   0.717220
H  -6.910773  -1.191307   2.264550
H  -6.855764  -2.059964   0.647598
H  -7.317252  -0.244267   0.762659

