%chk=/home/boittier/MDCM/nms_sampling/cyanomethane_geom.xyz.dir/cyanomethane_3241.chk
%nproc=8
%mem=16000MB
#p B2PLYPD3/Def2QZVP 

cyanomethane

0 1
C  -6.581115  -1.128874   1.148095
C  -5.207858  -0.770697   0.950906
N  -4.093855  -0.541262   0.680843
H  -6.805576  -1.297570   2.229225
H  -6.997913  -2.020061   0.607732
H  -7.176163  -0.258987   0.855110
