%chk=/home/boittier/MDCM/nms_sampling/cyanomethane_geom.xyz.dir/cyanomethane_2561.chk
%nproc=8
%mem=16000MB
#p B2PLYPD3/Def2QZVP 

cyanomethane

0 1
C  -6.625559  -1.125858   1.167526
C  -5.191709  -0.728908   0.897277
N  -4.086912  -0.574279   0.703281
H  -6.632673  -1.288995   2.228238
H  -6.745001  -2.021139   0.672231
H  -7.358962  -0.374334   0.851864

