%chk=/home/boittier/MDCM/nms_sampling/cyanomethane_geom.xyz.dir/cyanomethane_1639.chk
%nproc=8
%mem=16000MB
#p B2PLYPD3/Def2QZVP 

cyanomethane

0 1
C  -6.601402  -1.122191   1.162451
C  -5.195312  -0.812484   0.908365
N  -4.089900  -0.523377   0.703767
H  -6.824727  -1.141394   2.281318
H  -6.931805  -2.015974   0.689396
H  -7.188391  -0.292256   0.754296

