%chk=/home/boittier/MDCM/nms_sampling/cyanomethane_geom.xyz.dir/cyanomethane_2241.chk
%nproc=8
%mem=16000MB
#p B2PLYPD3/Def2QZVP 

cyanomethane

0 1
C  -6.612430  -1.116562   1.159562
C  -5.199369  -0.787520   0.929731
N  -4.085921  -0.535635   0.691541
H  -6.763405  -1.269849   2.203363
H  -6.903930  -2.030543   0.638026
H  -7.149084  -0.314236   0.818556

