%chk=/home/boittier/MDCM/nms_sampling/cyanomethane_geom.xyz.dir/cyanomethane_1773.chk
%nproc=8
%mem=16000MB
#p B2PLYPD3/Def2QZVP 

cyanomethane

0 1
C  -6.581536  -1.115515   1.163528
C  -5.206665  -0.796992   0.929585
N  -4.099649  -0.532292   0.687767
H  -6.701162  -1.216052   2.194701
H  -6.961962  -2.015870   0.676028
H  -7.246268  -0.339584   0.791041
