%chk=/home/boittier/MDCM/nms_sampling/cyanomethane_geom.xyz.dir/cyanomethane_2787.chk
%nproc=8
%mem=16000MB
#p B2PLYPD3/Def2QZVP 

cyanomethane

0 1
C  -6.602351  -1.093851   1.164910
C  -5.202676  -0.859368   0.906122
N  -4.085858  -0.501851   0.701316
H  -6.713167  -1.195586   2.265425
H  -6.954362  -1.967922   0.682800
H  -7.235093  -0.358799   0.805961

