%chk=/home/boittier/MDCM/nms_sampling/cyanomethane_geom.xyz.dir/cyanomethane_2283.chk
%nproc=8
%mem=16000MB
#p B2PLYPD3/Def2QZVP 

cyanomethane

0 1
C  -6.612439  -1.113233   1.172510
C  -5.195227  -0.770284   0.926239
N  -4.088603  -0.546211   0.688328
H  -6.663844  -1.290947   2.175815
H  -6.939430  -2.105862   0.628214
H  -7.223623  -0.315942   0.780371

