%chk=/home/boittier/MDCM/nms_sampling/cyanomethane_geom.xyz.dir/cyanomethane_2198.chk
%nproc=8
%mem=16000MB
#p B2PLYPD3/Def2QZVP 

cyanomethane

0 1
C  -6.594265  -1.123117   1.168223
C  -5.203849  -0.751794   0.909843
N  -4.101814  -0.556677   0.699258
H  -6.698667  -1.301814   2.235378
H  -6.846402  -2.052196   0.616438
H  -7.213798  -0.320086   0.821468
