%chk=/home/boittier/MDCM/nms_sampling/cyanomethane_geom.xyz.dir/cyanomethane_2515.chk
%nproc=8
%mem=16000MB
#p B2PLYPD3/Def2QZVP 

cyanomethane

0 1
C  -6.617590  -1.104249   1.142515
C  -5.198022  -0.837075   0.959696
N  -4.076765  -0.511321   0.682218
H  -6.877952  -1.195268   2.274232
H  -6.872508  -2.107165   0.648554
H  -7.150232  -0.212226   0.752271

