%chk=/home/boittier/MDCM/nms_sampling/cyanomethane_geom.xyz.dir/cyanomethane_2331.chk
%nproc=8
%mem=16000MB
#p B2PLYPD3/Def2QZVP 

cyanomethane

0 1
C  -6.610417  -1.107341   1.177128
C  -5.198006  -0.814420   0.902739
N  -4.091480  -0.523322   0.702434
H  -6.690029  -1.268028   2.230525
H  -6.912726  -2.025479   0.600299
H  -7.177346  -0.289981   0.800806
