%chk=/home/boittier/MDCM/nms_sampling/cyanomethane_geom.xyz.dir/cyanomethane_1465.chk
%nproc=8
%mem=16000MB
#p B2PLYPD3/Def2QZVP 

cyanomethane

0 1
C  -6.598549  -1.107389   1.175825
C  -5.198534  -0.803036   0.869249
N  -4.087149  -0.534689   0.722339
H  -6.817142  -1.199421   2.249699
H  -6.846556  -2.065639   0.718216
H  -7.313329  -0.327363   0.791497
