%chk=/home/boittier/MDCM/nms_sampling/cyanomethane_geom.xyz.dir/cyanomethane_2424.chk
%nproc=8
%mem=16000MB
#p B2PLYPD3/Def2QZVP 

cyanomethane

0 1
C  -6.596721  -1.115845   1.171768
C  -5.200680  -0.808616   0.852907
N  -4.085296  -0.527440   0.727925
H  -6.754336  -1.203598   2.303880
H  -6.975345  -1.960597   0.737219
H  -7.269636  -0.363479   0.869867
