%chk=/home/boittier/MDCM/nms_sampling/cyanomethane_geom.xyz.dir/cyanomethane_1799.chk
%nproc=8
%mem=16000MB
#p B2PLYPD3/Def2QZVP 

cyanomethane

0 1
C  -6.602914  -1.105126   1.166560
C  -5.201503  -0.800324   0.927307
N  -4.087343  -0.535579   0.691171
H  -6.737043  -1.246421   2.209255
H  -6.832973  -2.075978   0.635163
H  -7.316513  -0.288083   0.774157
