%chk=/home/boittier/MDCM/nms_sampling/cyanomethane_geom.xyz.dir/cyanomethane_2979.chk
%nproc=8
%mem=16000MB
#p B2PLYPD3/Def2QZVP 

cyanomethane

0 1
C  -6.606066  -1.106031   1.130718
C  -5.207349  -0.784017   0.998718
N  -4.093139  -0.540147   0.657350
H  -6.707450  -1.330034   2.175351
H  -6.801768  -2.013154   0.617800
H  -7.188934  -0.348433   0.857439
