%chk=/home/boittier/MDCM/nms_sampling/cyanomethane_geom.xyz.dir/cyanomethane_3544.chk
%nproc=8
%mem=16000MB
#p B2PLYPD3/Def2QZVP 

cyanomethane

0 1
C  -6.591106  -1.095220   1.187542
C  -5.194804  -0.797928   0.850425
N  -4.093674  -0.539191   0.735478
H  -6.932014  -1.246725   2.289243
H  -6.791897  -2.149801   0.653388
H  -7.297938  -0.337524   0.732573
