%chk=/home/boittier/MDCM/nms_sampling/cyanomethane_geom.xyz.dir/cyanomethane_1473.chk
%nproc=8
%mem=16000MB
#p B2PLYPD3/Def2QZVP 

cyanomethane

0 1
C  -6.606293  -1.109729   1.162887
C  -5.197474  -0.788945   0.946928
N  -4.090679  -0.538861   0.682569
H  -6.766851  -1.243436   2.208863
H  -6.843127  -2.067880   0.606049
H  -7.239318  -0.324297   0.734526
