%chk=/home/boittier/MDCM/nms_sampling/cyanomethane_geom.xyz.dir/cyanomethane_896.chk
%nproc=8
%mem=16000MB
#p B2PLYPD3/Def2QZVP 

cyanomethane

0 1
C  -6.604654  -1.116410   1.157949
C  -5.200597  -0.782438   0.905064
N  -4.090264  -0.543084   0.704696
H  -6.771831  -1.242877   2.220764
H  -6.812401  -2.030284   0.708467
H  -7.250038  -0.320485   0.851289

