%chk=/home/boittier/MDCM/nms_sampling/cyanomethane_geom.xyz.dir/cyanomethane_998.chk
%nproc=8
%mem=16000MB
#p B2PLYPD3/Def2QZVP 

cyanomethane

0 1
C  -6.596619  -1.108660   1.166138
C  -5.205212  -0.791226   0.916410
N  -4.096046  -0.538226   0.696368
H  -6.702662  -1.265654   2.239385
H  -6.846868  -2.057795   0.635762
H  -7.246559  -0.315460   0.798569

