%chk=/home/boittier/MDCM/nms_sampling/cyanomethane_geom.xyz.dir/cyanomethane_2792.chk
%nproc=8
%mem=16000MB
#p B2PLYPD3/Def2QZVP 

cyanomethane

0 1
C  -6.609566  -1.097868   1.179611
C  -5.200786  -0.847299   0.910192
N  -4.095701  -0.505629   0.697233
H  -6.622651  -1.276311   2.223166
H  -6.932285  -1.999223   0.567595
H  -7.143581  -0.268483   0.806162

