%chk=/home/boittier/MDCM/nms_sampling/cyanomethane_geom.xyz.dir/cyanomethane_573.chk
%nproc=8
%mem=16000MB
#p B2PLYPD3/Def2QZVP 

cyanomethane

0 1
C  -6.595842  -1.111265   1.168689
C  -5.199446  -0.799797   0.895510
N  -4.094076  -0.534455   0.710345
H  -6.824792  -1.210449   2.244548
H  -6.827298  -2.028087   0.673566
H  -7.251394  -0.335153   0.783844

