%chk=/home/boittier/MDCM/nms_sampling/cyanomethane_geom.xyz.dir/cyanomethane_914.chk
%nproc=8
%mem=16000MB
#p B2PLYPD3/Def2QZVP 

cyanomethane

0 1
C  -6.588089  -1.118509   1.166285
C  -5.203057  -0.789544   0.904829
N  -4.098604  -0.537195   0.704997
H  -6.805956  -1.198190   2.259757
H  -6.875217  -2.044498   0.670598
H  -7.208661  -0.325687   0.763408

