%chk=/home/boittier/MDCM/nms_sampling/cyanomethane_geom.xyz.dir/cyanomethane_2852.chk
%nproc=8
%mem=16000MB
#p B2PLYPD3/Def2QZVP 

cyanomethane

0 1
C  -6.621732  -1.133972   1.170109
C  -5.201661  -0.742811   0.913031
N  -4.082262  -0.561909   0.701342
H  -6.775241  -1.225211   2.268497
H  -6.764187  -2.117183   0.608172
H  -7.188918  -0.248040   0.726560
