%chk=/home/boittier/MDCM/nms_sampling/cyanomethane_geom.xyz.dir/cyanomethane_436.chk
%nproc=8
%mem=16000MB
#p B2PLYPD3/Def2QZVP 

cyanomethane

0 1
C  -6.590557  -1.118606   1.164751
C  -5.204176  -0.778077   0.903663
N  -4.096612  -0.544152   0.706041
H  -6.811008  -1.237820   2.259633
H  -6.835897  -2.043045   0.653568
H  -7.227177  -0.321458   0.793776

