%chk=/home/boittier/MDCM/nms_sampling/cyanomethane_geom.xyz.dir/cyanomethane_3089.chk
%nproc=8
%mem=16000MB
#p B2PLYPD3/Def2QZVP 

cyanomethane

0 1
C  -6.617774  -1.099069   1.153944
C  -5.203251  -0.804283   0.961893
N  -4.085361  -0.536835   0.672236
H  -6.620800  -1.207120   2.241091
H  -6.743124  -2.081838   0.650813
H  -7.353472  -0.329966   0.727130
