%chk=/home/boittier/MDCM/nms_sampling/cyanomethane_geom.xyz.dir/cyanomethane_3138.chk
%nproc=8
%mem=16000MB
#p B2PLYPD3/Def2QZVP 

cyanomethane

0 1
C  -6.593448  -1.099815   1.181698
C  -5.194937  -0.782715   0.886532
N  -4.088715  -0.549617   0.713664
H  -6.849077  -1.281108   2.273810
H  -6.772720  -2.132220   0.593403
H  -7.439764  -0.287330   0.747452

