%chk=/home/boittier/MDCM/nms_sampling/cyanomethane_geom.xyz.dir/cyanomethane_1999.chk
%nproc=8
%mem=16000MB
#p B2PLYPD3/Def2QZVP 

cyanomethane

0 1
C  -6.601154  -1.113004   1.162350
C  -5.195534  -0.775780   0.915904
N  -4.088882  -0.549584   0.697330
H  -6.770020  -1.207942   2.227122
H  -6.821777  -2.078998   0.705019
H  -7.366442  -0.341991   0.770832

