%chk=/home/boittier/MDCM/nms_sampling/cyanomethane_geom.xyz.dir/cyanomethane_2529.chk
%nproc=8
%mem=16000MB
#p B2PLYPD3/Def2QZVP 

cyanomethane

0 1
C  -6.600966  -1.129472   1.177180
C  -5.199453  -0.809633   0.866477
N  -4.100048  -0.523975   0.729893
H  -6.900245  -1.156459   2.306431
H  -6.805395  -2.013206   0.635626
H  -7.052433  -0.224530   0.758774

