%chk=/home/boittier/MDCM/nms_sampling/cyanomethane_geom.xyz.dir/cyanomethane_182.chk
%nproc=8
%mem=16000MB
#p B2PLYPD3/Def2QZVP 

cyanomethane

0 1
C  -6.593195  -1.120341   1.171707
C  -5.203035  -0.788770   0.896775
N  -4.093763  -0.538943   0.706659
H  -6.752397  -1.181569   2.260718
H  -6.878965  -2.034158   0.677720
H  -7.264744  -0.322576   0.759813

