%chk=/home/boittier/MDCM/nms_sampling/cyanomethane_geom.xyz.dir/cyanomethane_2523.chk
%nproc=8
%mem=16000MB
#p B2PLYPD3/Def2QZVP 

cyanomethane

0 1
C  -6.570688  -1.114593   1.173668
C  -5.204584  -0.772833   0.959996
N  -4.110998  -0.544499   0.665851
H  -6.568750  -1.303820   2.145211
H  -7.023514  -2.028144   0.561548
H  -7.313936  -0.341073   0.769571
