%chk=/home/boittier/MDCM/nms_sampling/cyanomethane_geom.xyz.dir/cyanomethane_1338.chk
%nproc=8
%mem=16000MB
#p B2PLYPD3/Def2QZVP 

cyanomethane

0 1
C  -6.595735  -1.114777   1.152954
C  -5.197902  -0.767006   0.925779
N  -4.093264  -0.549916   0.695339
H  -6.832892  -1.293394   2.271085
H  -6.848450  -2.034222   0.630577
H  -7.253672  -0.357514   0.824046
