%chk=/home/boittier/MDCM/nms_sampling/cyanomethane_geom.xyz.dir/cyanomethane_2542.chk
%nproc=8
%mem=16000MB
#p B2PLYPD3/Def2QZVP 

cyanomethane

0 1
C  -6.627521  -1.115385   1.188543
C  -5.190652  -0.747763   0.913914
N  -4.086507  -0.558819   0.691957
H  -6.600342  -1.340357   2.179931
H  -6.898130  -2.075676   0.542874
H  -7.232648  -0.357380   0.760082
