%chk=/home/boittier/MDCM/nms_sampling/cyanomethane_geom.xyz.dir/cyanomethane_25.chk
%nproc=8
%mem=16000MB
#p B2PLYPD3/Def2QZVP 

cyanomethane

0 1
C  -6.606414  -1.108454   1.171269
C  -5.198092  -0.797733   0.884975
N  -4.090543  -0.535322   0.713742
H  -6.756181  -1.236689   2.234565
H  -6.844277  -2.064323   0.695385
H  -7.238951  -0.319701   0.813707

