%chk=/home/boittier/MDCM/nms_sampling/cyanomethane_geom.xyz.dir/cyanomethane_309.chk
%nproc=8
%mem=16000MB
#p B2PLYPD3/Def2QZVP 

cyanomethane

0 1
C  -6.595576  -1.109315   1.171769
C  -5.205357  -0.786435   0.900489
N  -4.096308  -0.542118   0.705648
H  -6.744422  -1.252279   2.211245
H  -6.802311  -2.075136   0.661612
H  -7.255519  -0.314986   0.793062

