%chk=/home/boittier/MDCM/nms_sampling/cyanomethane_geom.xyz.dir/cyanomethane_2826.chk
%nproc=8
%mem=16000MB
#p B2PLYPD3/Def2QZVP 

cyanomethane

0 1
C  -6.588936  -1.108485   1.176213
C  -5.213644  -0.745710   0.896578
N  -4.101058  -0.566721   0.707401
H  -6.728860  -1.313416   2.217886
H  -6.688785  -2.088257   0.619465
H  -7.299852  -0.388068   0.782157

