%chk=/home/boittier/MDCM/nms_sampling/cyanomethane_geom.xyz.dir/cyanomethane_1306.chk
%nproc=8
%mem=16000MB
#p B2PLYPD3/Def2QZVP 

cyanomethane

0 1
C  -6.613133  -1.111739   1.167992
C  -5.199211  -0.825672   0.915781
N  -4.085255  -0.519277   0.696496
H  -6.701489  -1.174573   2.196727
H  -6.885550  -2.028652   0.689075
H  -7.232203  -0.264924   0.783333
