%chk=/home/boittier/MDCM/nms_sampling/cyanomethane_geom.xyz.dir/cyanomethane_2923.chk
%nproc=8
%mem=16000MB
#p B2PLYPD3/Def2QZVP 

cyanomethane

0 1
C  -6.578044  -1.115629   1.183883
C  -5.202308  -0.752559   0.882562
N  -4.102950  -0.565362   0.713860
H  -6.798599  -1.222492   2.178636
H  -6.727404  -2.091651   0.680859
H  -7.431598  -0.349190   0.748733
