%chk=/home/boittier/MDCM/nms_sampling/cyanomethane_geom.xyz.dir/cyanomethane_764.chk
%nproc=8
%mem=16000MB
#p B2PLYPD3/Def2QZVP 

cyanomethane

0 1
C  -6.594560  -1.110302   1.163616
C  -5.205131  -0.813227   0.905918
N  -4.097011  -0.527100   0.704667
H  -6.771740  -1.198455   2.236681
H  -6.814172  -2.016055   0.685423
H  -7.223247  -0.311307   0.798490

