%chk=/home/boittier/MDCM/nms_sampling/cyanomethane_geom.xyz.dir/cyanomethane_1882.chk
%nproc=8
%mem=16000MB
#p B2PLYPD3/Def2QZVP 

cyanomethane

0 1
C  -6.601244  -1.121165   1.180312
C  -5.205419  -0.799807   0.870096
N  -4.093680  -0.532314   0.720781
H  -6.732647  -1.187793   2.252401
H  -6.847839  -2.024557   0.678737
H  -7.189449  -0.282051   0.790759
