%chk=/home/boittier/MDCM/nms_sampling/cyanomethane_geom.xyz.dir/cyanomethane_3404.chk
%nproc=8
%mem=16000MB
#p B2PLYPD3/Def2QZVP 

cyanomethane

0 1
C  -6.601861  -1.099942   1.153843
C  -5.192729  -0.804595   0.851683
N  -4.086659  -0.531751   0.738528
H  -6.971574  -1.299419   2.380718
H  -6.832020  -2.015056   0.707085
H  -7.212591  -0.380080   0.914130
