%chk=/home/boittier/MDCM/nms_sampling/cyanomethane_geom.xyz.dir/cyanomethane_1013.chk
%nproc=8
%mem=16000MB
#p B2PLYPD3/Def2QZVP 

cyanomethane

0 1
C  -6.599437  -1.116583   1.165988
C  -5.198368  -0.789464   0.892448
N  -4.091596  -0.537331   0.710844
H  -6.801436  -1.217497   2.257348
H  -6.889632  -2.027139   0.693029
H  -7.215716  -0.348023   0.804840

