%chk=/home/boittier/MDCM/nms_sampling/cyanomethane_geom.xyz.dir/cyanomethane_2079.chk
%nproc=8
%mem=16000MB
#p B2PLYPD3/Def2QZVP 

cyanomethane

0 1
C  -6.599287  -1.103713   1.168490
C  -5.200102  -0.825160   0.917444
N  -4.086799  -0.522473   0.697028
H  -6.775565  -1.201140   2.232067
H  -6.860837  -2.036261   0.645135
H  -7.319722  -0.285410   0.763615
