%chk=/home/boittier/MDCM/nms_sampling/cyanomethane_geom.xyz.dir/cyanomethane_2697.chk
%nproc=8
%mem=16000MB
#p B2PLYPD3/Def2QZVP 

cyanomethane

0 1
C  -6.582616  -1.089542   1.160234
C  -5.207358  -0.862637   0.905698
N  -4.095758  -0.501450   0.702920
H  -6.755045  -1.181921   2.272369
H  -6.936507  -1.963013   0.713349
H  -7.255162  -0.399851   0.804125

