%chk=/home/boittier/MDCM/nms_sampling/cyanomethane_geom.xyz.dir/cyanomethane_543.chk
%nproc=8
%mem=16000MB
#p B2PLYPD3/Def2QZVP 

cyanomethane

0 1
C  -6.603343  -1.108615   1.166256
C  -5.200761  -0.813827   0.912663
N  -4.089547  -0.526491   0.698445
H  -6.721496  -1.201641   2.229528
H  -6.877384  -2.043057   0.680769
H  -7.260602  -0.300405   0.784250

