%chk=/home/boittier/MDCM/nms_sampling/cyanomethane_geom.xyz.dir/cyanomethane_1503.chk
%nproc=8
%mem=16000MB
#p B2PLYPD3/Def2QZVP 

cyanomethane

0 1
C  -6.608562  -1.118342   1.178789
C  -5.201123  -0.811466   0.891248
N  -4.088628  -0.525378   0.710200
H  -6.744013  -1.190928   2.253025
H  -6.875869  -2.025063   0.631718
H  -7.185379  -0.259643   0.762188

