%chk=/home/boittier/MDCM/nms_sampling/cyanomethane_geom.xyz.dir/cyanomethane_611.chk
%nproc=8
%mem=16000MB
#p B2PLYPD3/Def2QZVP 

cyanomethane

0 1
C  -6.598999  -1.112644   1.166383
C  -5.199975  -0.790772   0.926679
N  -4.089867  -0.539531   0.691122
H  -6.748667  -1.208386   2.215948
H  -6.857645  -2.031826   0.652479
H  -7.312010  -0.344519   0.752620
