%chk=/home/boittier/MDCM/nms_sampling/cyanomethane_geom.xyz.dir/cyanomethane_1839.chk
%nproc=8
%mem=16000MB
#p B2PLYPD3/Def2QZVP 

cyanomethane

0 1
C  -6.604687  -1.107917   1.168730
C  -5.200706  -0.810444   0.886505
N  -4.086567  -0.527646   0.716874
H  -6.858511  -1.208793   2.293947
H  -6.838712  -2.059294   0.665291
H  -7.189863  -0.315782   0.769552

