%chk=/home/boittier/MDCM/nms_sampling/cyanomethane_geom.xyz.dir/cyanomethane_180.chk
%nproc=8
%mem=16000MB
#p B2PLYPD3/Def2QZVP 

cyanomethane

0 1
C  -6.604081  -1.111370   1.166808
C  -5.199399  -0.810556   0.909340
N  -4.092176  -0.526217   0.699476
H  -6.700566  -1.216870   2.225183
H  -6.911474  -2.035026   0.679896
H  -7.217300  -0.299854   0.804637

