%chk=/home/boittier/MDCM/nms_sampling/cyanomethane_geom.xyz.dir/cyanomethane_638.chk
%nproc=8
%mem=16000MB
#p B2PLYPD3/Def2QZVP 

cyanomethane

0 1
C  -6.599290  -1.119415   1.170980
C  -5.198706  -0.775738   0.905461
N  -4.091433  -0.545768   0.701126
H  -6.735822  -1.207445   2.232644
H  -6.890728  -2.047901   0.676474
H  -7.280181  -0.348007   0.763056
