%chk=/home/boittier/MDCM/nms_sampling/cyanomethane_geom.xyz.dir/cyanomethane_2039.chk
%nproc=8
%mem=16000MB
#p B2PLYPD3/Def2QZVP 

cyanomethane

0 1
C  -6.587584  -1.109498   1.181545
C  -5.204642  -0.812627   0.893068
N  -4.097580  -0.523449   0.707009
H  -6.730297  -1.257727   2.221774
H  -6.966575  -2.008672   0.608934
H  -7.193101  -0.314050   0.796382

