%chk=/home/boittier/MDCM/nms_sampling/cyanomethane_geom.xyz.dir/cyanomethane_1915.chk
%nproc=8
%mem=16000MB
#p B2PLYPD3/Def2QZVP 

cyanomethane

0 1
C  -6.583010  -1.132165   1.169273
C  -5.205377  -0.767455   0.906878
N  -4.101510  -0.548891   0.701994
H  -6.772370  -1.156317   2.197218
H  -6.864089  -2.030695   0.710782
H  -7.244277  -0.325308   0.755134
