%chk=/home/boittier/MDCM/nms_sampling/cyanomethane_geom.xyz.dir/cyanomethane_2726.chk
%nproc=8
%mem=16000MB
#p B2PLYPD3/Def2QZVP 

cyanomethane

0 1
C  -6.606077  -1.082383   1.168203
C  -5.207201  -0.825500   0.860737
N  -4.094150  -0.524969   0.725993
H  -6.686596  -1.291131   2.253573
H  -6.763194  -2.043717   0.744625
H  -7.234585  -0.415351   0.889172

