%chk=/home/boittier/MDCM/nms_sampling/cyanomethane_geom.xyz.dir/cyanomethane_378.chk
%nproc=8
%mem=16000MB
#p B2PLYPD3/Def2QZVP 

cyanomethane

0 1
C  -6.598379  -1.120788   1.164541
C  -5.200895  -0.785021   0.924653
N  -4.089331  -0.540206   0.692654
H  -6.764323  -1.189878   2.202235
H  -6.889803  -2.036021   0.679899
H  -7.266454  -0.322888   0.762036
