%chk=/home/boittier/MDCM/nms_sampling/cyanomethane_geom.xyz.dir/cyanomethane_1493.chk
%nproc=8
%mem=16000MB
#p B2PLYPD3/Def2QZVP 

cyanomethane

0 1
C  -6.599272  -1.119940   1.181760
C  -5.199106  -0.800929   0.869852
N  -4.085592  -0.531429   0.721614
H  -6.822074  -1.199908   2.265385
H  -6.915959  -2.029989   0.653168
H  -7.245125  -0.275415   0.782150

