%chk=/home/boittier/MDCM/nms_sampling/cyanomethane_geom.xyz.dir/cyanomethane_3124.chk
%nproc=8
%mem=16000MB
#p B2PLYPD3/Def2QZVP 

cyanomethane

0 1
C  -6.601860  -1.116306   1.170837
C  -5.205861  -0.803134   0.859196
N  -4.093059  -0.526575   0.731146
H  -6.846229  -1.273759   2.212433
H  -6.871552  -2.027518   0.703677
H  -7.044645  -0.277752   0.900493

