%chk=/home/boittier/MDCM/nms_sampling/cyanomethane_geom.xyz.dir/cyanomethane_587.chk
%nproc=8
%mem=16000MB
#p B2PLYPD3/Def2QZVP 

cyanomethane

0 1
C  -6.606360  -1.116587   1.161067
C  -5.200695  -0.792395   0.928180
N  -4.089737  -0.537344   0.691349
H  -6.730774  -1.205998   2.226701
H  -6.838291  -2.030939   0.663027
H  -7.252934  -0.311303   0.775839
