%chk=/home/boittier/MDCM/nms_sampling/cyanomethane_geom.xyz.dir/cyanomethane_1357.chk
%nproc=8
%mem=16000MB
#p B2PLYPD3/Def2QZVP 

cyanomethane

0 1
C  -6.610111  -1.116434   1.151871
C  -5.201754  -0.755339   0.912066
N  -4.088032  -0.557812   0.701326
H  -6.762372  -1.256584   2.232530
H  -6.780656  -2.058328   0.732009
H  -7.243456  -0.395367   0.837316
