%chk=/home/boittier/MDCM/nms_sampling/cyanomethane_geom.xyz.dir/cyanomethane_3313.chk
%nproc=8
%mem=16000MB
#p B2PLYPD3/Def2QZVP 

cyanomethane

0 1
C  -6.608834  -1.113755   1.147518
C  -5.199568  -0.815505   0.967818
N  -4.097894  -0.526710   0.673972
H  -6.730360  -1.151490   2.219965
H  -6.737332  -2.006793   0.657270
H  -7.226989  -0.292163   0.735226

