%chk=/home/boittier/MDCM/nms_sampling/cyanomethane_geom.xyz.dir/cyanomethane_1270.chk
%nproc=8
%mem=16000MB
#p B2PLYPD3/Def2QZVP 

cyanomethane

0 1
C  -6.596956  -1.131805   1.159347
C  -5.200651  -0.748392   0.908554
N  -4.087806  -0.558139   0.699740
H  -6.752113  -1.225458   2.261381
H  -6.924030  -2.007402   0.696931
H  -7.285674  -0.373668   0.818032
