%chk=/home/boittier/MDCM/nms_sampling/cyanomethane_geom.xyz.dir/cyanomethane_2170.chk
%nproc=8
%mem=16000MB
#p B2PLYPD3/Def2QZVP 

cyanomethane

0 1
C  -6.601394  -1.119195   1.188281
C  -5.194286  -0.791872   0.865008
N  -4.089208  -0.537523   0.723542
H  -6.810797  -1.204744   2.294097
H  -6.886268  -2.046797   0.617810
H  -7.269461  -0.287217   0.743935

