%chk=/home/boittier/MDCM/nms_sampling/cyanomethane_geom.xyz.dir/cyanomethane_3220.chk
%nproc=8
%mem=16000MB
#p B2PLYPD3/Def2QZVP 

cyanomethane

0 1
C  -6.599950  -1.117787   1.183618
C  -5.189872  -0.805156   0.942946
N  -4.087017  -0.525673   0.680810
H  -6.781351  -1.191568   2.174807
H  -7.047098  -2.059681   0.557319
H  -7.239218  -0.278537   0.656954

