%chk=/home/boittier/MDCM/nms_sampling/cyanomethane_geom.xyz.dir/cyanomethane_2075.chk
%nproc=8
%mem=16000MB
#p B2PLYPD3/Def2QZVP 

cyanomethane

0 1
C  -6.595387  -1.133338   1.162446
C  -5.198483  -0.763724   0.908208
N  -4.093412  -0.551475   0.702508
H  -6.804313  -1.167776   2.242028
H  -6.850769  -2.004501   0.701002
H  -7.274179  -0.334211   0.776919

