%chk=/home/boittier/MDCM/nms_sampling/cyanomethane_geom.xyz.dir/cyanomethane_2363.chk
%nproc=8
%mem=16000MB
#p B2PLYPD3/Def2QZVP 

cyanomethane

0 1
C  -6.582059  -1.124424   1.161008
C  -5.203068  -0.747693   0.907310
N  -4.103348  -0.558716   0.701290
H  -6.749824  -1.279166   2.253128
H  -6.893938  -2.073458   0.673213
H  -7.249563  -0.334137   0.829331
