%chk=/home/boittier/MDCM/nms_sampling/cyanomethane_geom.xyz.dir/cyanomethane_1314.chk
%nproc=8
%mem=16000MB
#p B2PLYPD3/Def2QZVP 

cyanomethane

0 1
C  -6.609546  -1.119795   1.162492
C  -5.201119  -0.808810   0.909043
N  -4.087099  -0.524608   0.701102
H  -6.735660  -1.170796   2.187995
H  -6.930633  -2.022054   0.740762
H  -7.146054  -0.307314   0.809291

