%chk=/home/boittier/MDCM/nms_sampling/cyanomethane_geom.xyz.dir/cyanomethane_202.chk
%nproc=8
%mem=16000MB
#p B2PLYPD3/Def2QZVP 

cyanomethane

0 1
C  -6.600580  -1.110267   1.163292
C  -5.198609  -0.793221   0.920318
N  -4.092281  -0.537270   0.695983
H  -6.765831  -1.244989   2.253531
H  -6.851925  -2.048120   0.634873
H  -7.263894  -0.318210   0.782259

