%chk=/home/boittier/MDCM/nms_sampling/cyanomethane_geom.xyz.dir/cyanomethane_2947.chk
%nproc=8
%mem=16000MB
#p B2PLYPD3/Def2QZVP 

cyanomethane

0 1
C  -6.602064  -1.100470   1.154991
C  -5.208975  -0.794284   0.894011
N  -4.093174  -0.535872   0.717112
H  -6.900612  -1.344749   2.215216
H  -6.726831  -2.053418   0.665414
H  -7.096169  -0.328527   0.904580

