%chk=/home/boittier/MDCM/nms_sampling/cyanomethane_geom.xyz.dir/cyanomethane_3592.chk
%nproc=8
%mem=16000MB
#p B2PLYPD3/Def2QZVP 

cyanomethane

0 1
C  -6.622327  -1.106151   1.150727
C  -5.194860  -0.838214   0.909087
N  -4.086729  -0.511101   0.703955
H  -6.762671  -1.211545   2.190055
H  -6.853114  -1.916675   0.746015
H  -7.125516  -0.366646   0.899164

