%chk=/home/boittier/MDCM/nms_sampling/cyanomethane_geom.xyz.dir/cyanomethane_2569.chk
%nproc=8
%mem=16000MB
#p B2PLYPD3/Def2QZVP 

cyanomethane

0 1
C  -6.607366  -1.121288   1.162256
C  -5.191741  -0.818541   0.924331
N  -4.082602  -0.516832   0.696821
H  -6.887404  -1.132256   2.229626
H  -7.011155  -2.053290   0.691907
H  -7.118212  -0.285491   0.719621
