%chk=/home/boittier/MDCM/nms_sampling/cyanomethane_geom.xyz.dir/cyanomethane_1020.chk
%nproc=8
%mem=16000MB
#p B2PLYPD3/Def2QZVP 

cyanomethane

0 1
C  -6.593492  -1.107977   1.174970
C  -5.199390  -0.796769   0.881857
N  -4.094197  -0.535352   0.715955
H  -6.810019  -1.262513   2.234390
H  -6.868329  -2.047077   0.656713
H  -7.250535  -0.322201   0.817304
