%chk=/home/boittier/MDCM/nms_sampling/cyanomethane_geom.xyz.dir/cyanomethane_2982.chk
%nproc=8
%mem=16000MB
#p B2PLYPD3/Def2QZVP 

cyanomethane

0 1
C  -6.601666  -1.116899   1.159465
C  -5.199991  -0.765854   0.895045
N  -4.083024  -0.553086   0.715958
H  -6.975205  -1.244952   2.315145
H  -6.748703  -2.042246   0.641479
H  -7.259482  -0.361536   0.780751
