%chk=/home/boittier/MDCM/nms_sampling/cyanomethane_geom.xyz.dir/cyanomethane_3535.chk
%nproc=8
%mem=16000MB
#p B2PLYPD3/Def2QZVP 

cyanomethane

0 1
C  -6.594498  -1.115110   1.137091
C  -5.201405  -0.801135   0.977141
N  -4.085192  -0.534524   0.667441
H  -6.786723  -1.180441   2.242600
H  -6.859798  -1.955839   0.670761
H  -7.377106  -0.356168   0.784452

