%chk=/home/boittier/MDCM/nms_sampling/cyanomethane_geom.xyz.dir/cyanomethane_2291.chk
%nproc=8
%mem=16000MB
#p B2PLYPD3/Def2QZVP 

cyanomethane

0 1
C  -6.606918  -1.103141   1.178318
C  -5.201675  -0.807492   0.876673
N  -4.089925  -0.531729   0.719508
H  -6.779330  -1.266780   2.250605
H  -6.782854  -2.089223   0.636096
H  -7.236807  -0.258620   0.807096
