%chk=/home/boittier/MDCM/nms_sampling/cyanomethane_geom.xyz.dir/cyanomethane_2783.chk
%nproc=8
%mem=16000MB
#p B2PLYPD3/Def2QZVP 

cyanomethane

0 1
C  -6.572190  -1.084035   1.161985
C  -5.214036  -0.862635   0.932617
N  -4.103908  -0.502536   0.688210
H  -6.705032  -1.285412   2.227663
H  -6.885729  -1.979098   0.596676
H  -7.285902  -0.302760   0.839471
