%chk=/home/boittier/MDCM/nms_sampling/cyanomethane_geom.xyz.dir/cyanomethane_3018.chk
%nproc=8
%mem=16000MB
#p B2PLYPD3/Def2QZVP 

cyanomethane

0 1
C  -6.571499  -1.114664   1.193587
C  -5.205102  -0.841434   0.886313
N  -4.107580  -0.510522   0.709067
H  -6.720899  -1.124215   2.166136
H  -6.958188  -1.993237   0.659254
H  -7.259225  -0.260852   0.723966

