%chk=/home/boittier/MDCM/nms_sampling/cyanomethane_geom.xyz.dir/cyanomethane_3267.chk
%nproc=8
%mem=16000MB
#p B2PLYPD3/Def2QZVP 

cyanomethane

0 1
C  -6.624285  -1.114113   1.188751
C  -5.196293  -0.805564   0.854243
N  -4.079171  -0.526858   0.725801
H  -6.675682  -1.247858   2.242788
H  -6.964718  -2.091100   0.672926
H  -7.160840  -0.241518   0.824293
