%chk=/home/boittier/MDCM/nms_sampling/cyanomethane_geom.xyz.dir/cyanomethane_2722.chk
%nproc=8
%mem=16000MB
#p B2PLYPD3/Def2QZVP 

cyanomethane

0 1
C  -6.570694  -1.114758   1.146812
C  -5.204849  -0.760812   0.969841
N  -4.110779  -0.549105   0.668275
H  -6.717576  -1.297350   2.223339
H  -6.979865  -2.042453   0.627434
H  -7.210615  -0.411892   0.789882
