%chk=/home/boittier/MDCM/nms_sampling/cyanomethane_geom.xyz.dir/cyanomethane_1019.chk
%nproc=8
%mem=16000MB
#p B2PLYPD3/Def2QZVP 

cyanomethane

0 1
C  -6.596418  -1.117447   1.175547
C  -5.205101  -0.768619   0.897956
N  -4.095570  -0.549015   0.705006
H  -6.713372  -1.267604   2.222060
H  -6.858306  -2.055654   0.637054
H  -7.233748  -0.334075   0.793076
