%chk=/home/boittier/MDCM/nms_sampling/cyanomethane_geom.xyz.dir/cyanomethane_381.chk
%nproc=8
%mem=16000MB
#p B2PLYPD3/Def2QZVP 

cyanomethane

0 1
C  -6.588065  -1.119025   1.169098
C  -5.204462  -0.788064   0.895269
N  -4.097417  -0.539465   0.708035
H  -6.761435  -1.190980   2.262898
H  -6.869000  -2.035047   0.687605
H  -7.259056  -0.328875   0.775569
