%chk=/home/boittier/MDCM/nms_sampling/cyanomethane_geom.xyz.dir/cyanomethane_3087.chk
%nproc=8
%mem=16000MB
#p B2PLYPD3/Def2QZVP 

cyanomethane

0 1
C  -6.597845  -1.130204   1.146778
C  -5.201163  -0.777461   0.961552
N  -4.083653  -0.538096   0.674787
H  -6.797465  -1.251702   2.243948
H  -7.006616  -1.973219   0.605628
H  -7.199975  -0.302851   0.816211

