%chk=/home/boittier/MDCM/nms_sampling/cyanomethane_geom.xyz.dir/cyanomethane_1899.chk
%nproc=8
%mem=16000MB
#p B2PLYPD3/Def2QZVP 

cyanomethane

0 1
C  -6.599048  -1.123207   1.185372
C  -5.198579  -0.771511   0.877433
N  -4.091468  -0.548286   0.716078
H  -6.770455  -1.219481   2.262462
H  -6.864140  -2.050913   0.623604
H  -7.276217  -0.307801   0.749226

