%chk=/home/boittier/MDCM/nms_sampling/cyanomethane_geom.xyz.dir/cyanomethane_376.chk
%nproc=8
%mem=16000MB
#p B2PLYPD3/Def2QZVP 

cyanomethane

0 1
C  -6.596187  -1.110137   1.161601
C  -5.199067  -0.803015   0.897000
N  -4.092242  -0.531873   0.710558
H  -6.840293  -1.224046   2.269417
H  -6.851928  -2.053041   0.687807
H  -7.236357  -0.306305   0.810635
