%chk=/home/boittier/MDCM/nms_sampling/cyanomethane_geom.xyz.dir/cyanomethane_3059.chk
%nproc=8
%mem=16000MB
#p B2PLYPD3/Def2QZVP 

cyanomethane

0 1
C  -6.618897  -1.118842   1.138206
C  -5.189901  -0.784072   0.961823
N  -4.086514  -0.537695   0.673102
H  -6.685611  -1.253219   2.203517
H  -6.943481  -2.033075   0.709743
H  -7.214152  -0.312128   0.862387
