%chk=/home/boittier/MDCM/nms_sampling/cyanomethane_geom.xyz.dir/cyanomethane_1033.chk
%nproc=8
%mem=16000MB
#p B2PLYPD3/Def2QZVP 

cyanomethane

0 1
C  -6.602354  -1.115799   1.174499
C  -5.199114  -0.785122   0.891181
N  -4.093243  -0.539976   0.709364
H  -6.737296  -1.260599   2.243249
H  -6.875931  -2.038433   0.637931
H  -7.225508  -0.309884   0.810532
