%chk=/home/boittier/MDCM/nms_sampling/cyanomethane_geom.xyz.dir/cyanomethane_3273.chk
%nproc=8
%mem=16000MB
#p B2PLYPD3/Def2QZVP 

cyanomethane

0 1
C  -6.625702  -1.120981   1.175403
C  -5.189918  -0.797115   0.953813
N  -4.085620  -0.533913   0.672260
H  -6.601745  -1.144531   2.145636
H  -6.901615  -1.996142   0.630258
H  -7.274085  -0.342811   0.679271
