%chk=/home/boittier/MDCM/nms_sampling/cyanomethane_geom.xyz.dir/cyanomethane_1820.chk
%nproc=8
%mem=16000MB
#p B2PLYPD3/Def2QZVP 

cyanomethane

0 1
C  -6.599923  -1.117162   1.170517
C  -5.195047  -0.790385   0.937981
N  -4.089662  -0.537116   0.685057
H  -6.768096  -1.205796   2.224102
H  -6.919691  -2.028885   0.595856
H  -7.282500  -0.326045   0.710883
