%chk=/home/boittier/MDCM/nms_sampling/cyanomethane_geom.xyz.dir/cyanomethane_2202.chk
%nproc=8
%mem=16000MB
#p B2PLYPD3/Def2QZVP 

cyanomethane

0 1
C  -6.596886  -1.110050   1.155778
C  -5.202759  -0.823401   0.925496
N  -4.096908  -0.521165   0.696125
H  -6.797662  -1.162276   2.219131
H  -6.814533  -2.011908   0.707446
H  -7.199601  -0.314904   0.777880
