%chk=/home/boittier/MDCM/nms_sampling/cyanomethane_geom.xyz.dir/cyanomethane_338.chk
%nproc=8
%mem=16000MB
#p B2PLYPD3/Def2QZVP 

cyanomethane

0 1
C  -6.602891  -1.111398   1.167380
C  -5.197723  -0.779472   0.908518
N  -4.090652  -0.546090   0.700614
H  -6.748027  -1.245685   2.218948
H  -6.830597  -2.036735   0.668504
H  -7.307850  -0.362575   0.796255
