%chk=/home/boittier/MDCM/nms_sampling/cyanomethane_geom.xyz.dir/cyanomethane_3028.chk
%nproc=8
%mem=16000MB
#p B2PLYPD3/Def2QZVP 

cyanomethane

0 1
C  -6.570220  -1.087890   1.165040
C  -5.211449  -0.864135   0.925553
N  -4.103153  -0.500842   0.696954
H  -6.845250  -1.213534   2.285538
H  -6.870797  -2.100920   0.601377
H  -7.226253  -0.226031   0.729982
