%chk=/home/boittier/MDCM/nms_sampling/cyanomethane_geom.xyz.dir/cyanomethane_95.chk
%nproc=8
%mem=16000MB
#p B2PLYPD3/Def2QZVP 

cyanomethane

0 1
C  -6.590693  -1.117484   1.173972
C  -5.202384  -0.789548   0.886631
N  -4.097521  -0.538414   0.711125
H  -6.734397  -1.209586   2.252926
H  -6.888872  -2.028838   0.680830
H  -7.257422  -0.330846   0.791501
