%chk=/home/boittier/MDCM/nms_sampling/cyanomethane_geom.xyz.dir/cyanomethane_549.chk
%nproc=8
%mem=16000MB
#p B2PLYPD3/Def2QZVP 

cyanomethane

0 1
C  -6.604696  -1.112545   1.169168
C  -5.197363  -0.790515   0.921730
N  -4.090493  -0.536500   0.692224
H  -6.702598  -1.247992   2.207960
H  -6.926848  -2.067460   0.643900
H  -7.240291  -0.308423   0.779743

