%chk=/home/boittier/MDCM/nms_sampling/cyanomethane_geom.xyz.dir/cyanomethane_1568.chk
%nproc=8
%mem=16000MB
#p B2PLYPD3/Def2QZVP 

cyanomethane

0 1
C  -6.583817  -1.113835   1.177941
C  -5.208203  -0.788801   0.914572
N  -4.099111  -0.536471   0.695041
H  -6.700554  -1.272303   2.225231
H  -6.944149  -2.020404   0.578555
H  -7.227290  -0.330369   0.770815

