%chk=/home/boittier/MDCM/nms_sampling/cyanomethane_geom.xyz.dir/cyanomethane_910.chk
%nproc=8
%mem=16000MB
#p B2PLYPD3/Def2QZVP 

cyanomethane

0 1
C  -6.591141  -1.112197   1.158361
C  -5.201496  -0.790851   0.922836
N  -4.097081  -0.537632   0.694551
H  -6.766940  -1.247338   2.215990
H  -6.871681  -2.023418   0.673294
H  -7.253695  -0.339465   0.820341
