%chk=/home/boittier/MDCM/nms_sampling/cyanomethane_geom.xyz.dir/cyanomethane_1178.chk
%nproc=8
%mem=16000MB
#p B2PLYPD3/Def2QZVP 

cyanomethane

0 1
C  -6.590540  -1.115638   1.168516
C  -5.202598  -0.783054   0.912729
N  -4.098917  -0.541341   0.697659
H  -6.722155  -1.223850   2.225904
H  -6.890628  -2.047698   0.666917
H  -7.247865  -0.345134   0.772820

