%chk=/home/boittier/MDCM/nms_sampling/cyanomethane_geom.xyz.dir/cyanomethane_951.chk
%nproc=8
%mem=16000MB
#p B2PLYPD3/Def2QZVP 

cyanomethane

0 1
C  -6.596630  -1.117711   1.168384
C  -5.204861  -0.790745   0.888481
N  -4.095221  -0.536063   0.711983
H  -6.747378  -1.230158   2.262476
H  -6.879720  -2.036593   0.680498
H  -7.183706  -0.313214   0.817334
