%chk=/home/boittier/MDCM/nms_sampling/cyanomethane_geom.xyz.dir/cyanomethane_1021.chk
%nproc=8
%mem=16000MB
#p B2PLYPD3/Def2QZVP 

cyanomethane

0 1
C  -6.588674  -1.121533   1.158909
C  -5.203779  -0.785644   0.928914
N  -4.096167  -0.538478   0.689620
H  -6.728863  -1.207887   2.227399
H  -6.928074  -2.020223   0.678866
H  -7.250276  -0.323947   0.792848

