%chk=/home/boittier/MDCM/nms_sampling/cyanomethane_geom.xyz.dir/cyanomethane_2375.chk
%nproc=8
%mem=16000MB
#p B2PLYPD3/Def2QZVP 

cyanomethane

0 1
C  -6.589970  -1.101167   1.158834
C  -5.205136  -0.835144   0.919522
N  -4.094903  -0.514080   0.700148
H  -6.844054  -1.199859   2.279636
H  -6.868639  -2.044491   0.653633
H  -7.182949  -0.303569   0.762420

