%chk=/home/boittier/MDCM/nms_sampling/cyanomethane_geom.xyz.dir/cyanomethane_2691.chk
%nproc=8
%mem=16000MB
#p B2PLYPD3/Def2QZVP 

cyanomethane

0 1
C  -6.622820  -1.099832   1.141567
C  -5.195045  -0.858259   0.940282
N  -4.079975  -0.503088   0.690634
H  -6.825530  -1.116536   2.173198
H  -6.827635  -2.024953   0.803908
H  -7.174417  -0.311219   0.801334
