%chk=/home/boittier/MDCM/nms_sampling/cyanomethane_geom.xyz.dir/cyanomethane_793.chk
%nproc=8
%mem=16000MB
#p B2PLYPD3/Def2QZVP 

cyanomethane

0 1
C  -6.589570  -1.111539   1.170266
C  -5.204499  -0.805383   0.912702
N  -4.096545  -0.528084   0.698372
H  -6.745573  -1.237375   2.225331
H  -6.928303  -2.018429   0.633606
H  -7.209024  -0.321854   0.786868

