%chk=/home/boittier/MDCM/nms_sampling/cyanomethane_geom.xyz.dir/cyanomethane_577.chk
%nproc=8
%mem=16000MB
#p B2PLYPD3/Def2QZVP 

cyanomethane

0 1
C  -6.596674  -1.113498   1.163317
C  -5.203777  -0.776488   0.902220
N  -4.096001  -0.544946   0.706533
H  -6.786069  -1.272819   2.241785
H  -6.825856  -2.050715   0.663107
H  -7.200925  -0.343166   0.823219

