%chk=/home/boittier/MDCM/nms_sampling/cyanomethane_geom.xyz.dir/cyanomethane_324.chk
%nproc=8
%mem=16000MB
#p B2PLYPD3/Def2QZVP 

cyanomethane

0 1
C  -6.597449  -1.109055   1.161665
C  -5.201573  -0.792687   0.921390
N  -4.090328  -0.537975   0.693738
H  -6.734821  -1.235281   2.218704
H  -6.879520  -2.047702   0.681673
H  -7.295408  -0.342525   0.798206

