%chk=/home/boittier/MDCM/nms_sampling/cyanomethane_geom.xyz.dir/cyanomethane_3.chk
%nproc=8
%mem=16000MB
#p B2PLYPD3/Def2QZVP 

cyanomethane

0 1
C  -6.596550  -1.115681   1.170057
C  -5.202507  -0.794686   0.922683
N  -4.096400  -0.535691   0.691789
H  -6.690492  -1.199741   2.185352
H  -6.878288  -2.043428   0.669375
H  -7.255146  -0.312751   0.761130
