%chk=/home/boittier/MDCM/nms_sampling/cyanomethane_geom.xyz.dir/cyanomethane_2157.chk
%nproc=8
%mem=16000MB
#p B2PLYPD3/Def2QZVP 

cyanomethane

0 1
C  -6.594029  -1.108419   1.153503
C  -5.205426  -0.816544   0.911451
N  -4.100927  -0.525427   0.703497
H  -6.773415  -1.188649   2.249200
H  -6.789256  -2.056035   0.730603
H  -7.193645  -0.290251   0.813004
