%chk=/home/boittier/MDCM/nms_sampling/cyanomethane_geom.xyz.dir/cyanomethane_834.chk
%nproc=8
%mem=16000MB
#p B2PLYPD3/Def2QZVP 

cyanomethane

0 1
C  -6.598018  -1.119957   1.168829
C  -5.204903  -0.773347   0.903650
N  -4.095188  -0.546568   0.702218
H  -6.702453  -1.237159   2.214226
H  -6.854649  -2.031947   0.677853
H  -7.236741  -0.340364   0.807559

