%chk=/home/boittier/MDCM/nms_sampling/cyanomethane_geom.xyz.dir/cyanomethane_2193.chk
%nproc=8
%mem=16000MB
#p B2PLYPD3/Def2QZVP 

cyanomethane

0 1
C  -6.591308  -1.107992   1.174081
C  -5.204025  -0.816725   0.908245
N  -4.101921  -0.523686   0.701812
H  -6.733710  -1.209602   2.233736
H  -6.866624  -2.099479   0.640935
H  -7.191124  -0.244725   0.747091

