%chk=/home/boittier/MDCM/nms_sampling/cyanomethane_geom.xyz.dir/cyanomethane_1250.chk
%nproc=8
%mem=16000MB
#p B2PLYPD3/Def2QZVP 

cyanomethane

0 1
C  -6.582509  -1.106287   1.169693
C  -5.203438  -0.821820   0.901963
N  -4.100855  -0.524433   0.704082
H  -6.744201  -1.173905   2.267620
H  -6.860974  -2.022888   0.677514
H  -7.317195  -0.318784   0.761050
