%chk=/home/boittier/MDCM/nms_sampling/cyanomethane_geom.xyz.dir/cyanomethane_3214.chk
%nproc=8
%mem=16000MB
#p B2PLYPD3/Def2QZVP 

cyanomethane

0 1
C  -6.598832  -1.127230   1.190487
C  -5.197680  -0.749372   0.866796
N  -4.083689  -0.556795   0.721099
H  -6.826297  -1.288570   2.274320
H  -6.951150  -2.011799   0.568791
H  -7.255822  -0.363054   0.777157
