%chk=/home/boittier/MDCM/nms_sampling/cyanomethane_geom.xyz.dir/cyanomethane_928.chk
%nproc=8
%mem=16000MB
#p B2PLYPD3/Def2QZVP 

cyanomethane

0 1
C  -6.604281  -1.124713   1.166558
C  -5.198494  -0.774660   0.901852
N  -4.089977  -0.545656   0.705086
H  -6.769433  -1.203816   2.234942
H  -6.856264  -2.029960   0.687257
H  -7.243275  -0.322062   0.791900

