%chk=/home/boittier/MDCM/nms_sampling/cyanomethane_geom.xyz.dir/cyanomethane_2934.chk
%nproc=8
%mem=16000MB
#p B2PLYPD3/Def2QZVP 

cyanomethane

0 1
C  -6.602113  -1.121484   1.135554
C  -5.192164  -0.799962   0.955241
N  -4.089181  -0.529576   0.676261
H  -6.719121  -1.184315   2.271240
H  -6.998915  -1.946109   0.728679
H  -7.266855  -0.373359   0.841498
