%chk=/home/boittier/MDCM/nms_sampling/cyanomethane_geom.xyz.dir/cyanomethane_1545.chk
%nproc=8
%mem=16000MB
#p B2PLYPD3/Def2QZVP 

cyanomethane

0 1
C  -6.609140  -1.104032   1.170529
C  -5.201178  -0.784876   0.929094
N  -4.087634  -0.543674   0.689831
H  -6.713262  -1.256905   2.226958
H  -6.810855  -2.105225   0.610495
H  -7.288454  -0.330417   0.728721
