%chk=/home/boittier/MDCM/nms_sampling/cyanomethane_geom.xyz.dir/cyanomethane_1862.chk
%nproc=8
%mem=16000MB
#p B2PLYPD3/Def2QZVP 

cyanomethane

0 1
C  -6.587775  -1.121813   1.172038
C  -5.203402  -0.778930   0.913958
N  -4.100354  -0.543568   0.696877
H  -6.727556  -1.174913   2.225443
H  -6.882944  -2.042147   0.671371
H  -7.254634  -0.350734   0.725260
