%chk=/home/boittier/MDCM/nms_sampling/cyanomethane_geom.xyz.dir/cyanomethane_1214.chk
%nproc=8
%mem=16000MB
#p B2PLYPD3/Def2QZVP 

cyanomethane

0 1
C  -6.584664  -1.123758   1.161267
C  -5.202671  -0.771637   0.905750
N  -4.099840  -0.546661   0.706256
H  -6.850035  -1.213037   2.295250
H  -6.849910  -2.064747   0.660110
H  -7.218623  -0.308580   0.769014
