%chk=/home/boittier/MDCM/nms_sampling/cyanomethane_geom.xyz.dir/cyanomethane_2306.chk
%nproc=8
%mem=16000MB
#p B2PLYPD3/Def2QZVP 

cyanomethane

0 1
C  -6.600510  -1.107019   1.160387
C  -5.200809  -0.838251   0.921003
N  -4.087019  -0.513115   0.698393
H  -6.839064  -1.162822   2.214516
H  -6.865273  -2.002393   0.688463
H  -7.225465  -0.294615   0.776153

