%chk=/home/boittier/MDCM/nms_sampling/cyanomethane_geom.xyz.dir/cyanomethane_3165.chk
%nproc=8
%mem=16000MB
#p B2PLYPD3/Def2QZVP 

cyanomethane

0 1
C  -6.608205  -1.098079   1.163122
C  -5.190844  -0.777366   0.900736
N  -4.084870  -0.550367   0.704465
H  -6.768559  -1.304085   2.198459
H  -6.821998  -2.073397   0.708100
H  -7.393872  -0.391686   0.855129
