%chk=/home/boittier/MDCM/nms_sampling/cyanomethane_geom.xyz.dir/cyanomethane_1904.chk
%nproc=8
%mem=16000MB
#p B2PLYPD3/Def2QZVP 

cyanomethane

0 1
C  -6.579817  -1.106642   1.173435
C  -5.203486  -0.793679   0.932460
N  -4.102036  -0.535761   0.686551
H  -6.722825  -1.248860   2.211709
H  -6.939232  -2.102603   0.605238
H  -7.273630  -0.310932   0.723565

