%chk=/home/boittier/MDCM/nms_sampling/cyanomethane_geom.xyz.dir/cyanomethane_2720.chk
%nproc=8
%mem=16000MB
#p B2PLYPD3/Def2QZVP 

cyanomethane

0 1
C  -6.628579  -1.120268   1.147789
C  -5.191007  -0.760634   0.925041
N  -4.086249  -0.558919   0.695588
H  -6.738792  -1.163742   2.273465
H  -6.672826  -2.084143   0.752443
H  -7.309048  -0.354161   0.762287

