%chk=/home/boittier/MDCM/nms_sampling/cyanomethane_geom.xyz.dir/cyanomethane_767.chk
%nproc=8
%mem=16000MB
#p B2PLYPD3/Def2QZVP 

cyanomethane

0 1
C  -6.604630  -1.119525   1.171804
C  -5.198285  -0.773656   0.908352
N  -4.091603  -0.546645   0.700501
H  -6.731906  -1.224005   2.247483
H  -6.861492  -2.085422   0.645466
H  -7.251277  -0.301102   0.752169
