%chk=/home/boittier/MDCM/nms_sampling/cyanomethane_geom.xyz.dir/cyanomethane_341.chk
%nproc=8
%mem=16000MB
#p B2PLYPD3/Def2QZVP 

cyanomethane

0 1
C  -6.596629  -1.118147   1.173684
C  -5.200935  -0.786432   0.893772
N  -4.091118  -0.540231   0.709103
H  -6.786254  -1.215166   2.258270
H  -6.869211  -2.035226   0.648712
H  -7.261470  -0.318626   0.771240

