%chk=/home/boittier/MDCM/nms_sampling/cyanomethane_geom.xyz.dir/cyanomethane_2279.chk
%nproc=8
%mem=16000MB
#p B2PLYPD3/Def2QZVP 

cyanomethane

0 1
C  -6.603146  -1.102129   1.162798
C  -5.199580  -0.794066   0.928546
N  -4.086296  -0.537860   0.689677
H  -6.722875  -1.286097   2.227647
H  -6.882680  -2.090365   0.634422
H  -7.315435  -0.306783   0.800725

