%chk=/home/boittier/MDCM/nms_sampling/cyanomethane_geom.xyz.dir/cyanomethane_831.chk
%nproc=8
%mem=16000MB
#p B2PLYPD3/Def2QZVP 

cyanomethane

0 1
C  -6.600135  -1.111982   1.171787
C  -5.199800  -0.810951   0.907714
N  -4.089805  -0.526892   0.700773
H  -6.744733  -1.199639   2.223402
H  -6.908325  -2.035041   0.662249
H  -7.253004  -0.298264   0.771158
