%chk=/home/boittier/MDCM/nms_sampling/cyanomethane_geom.xyz.dir/cyanomethane_1769.chk
%nproc=8
%mem=16000MB
#p B2PLYPD3/Def2QZVP 

cyanomethane

0 1
C  -6.594015  -1.130923   1.153442
C  -5.202575  -0.773015   0.940229
N  -4.090847  -0.544088   0.683668
H  -6.730319  -1.182293   2.245528
H  -6.943262  -1.990470   0.680977
H  -7.259240  -0.339912   0.781110
