%chk=/home/boittier/MDCM/nms_sampling/cyanomethane_geom.xyz.dir/cyanomethane_1407.chk
%nproc=8
%mem=16000MB
#p B2PLYPD3/Def2QZVP 

cyanomethane

0 1
C  -6.601531  -1.116296   1.177069
C  -5.204737  -0.785480   0.872814
N  -4.094526  -0.540445   0.716607
H  -6.664939  -1.225117   2.232817
H  -6.874331  -2.030249   0.711014
H  -7.222794  -0.351257   0.822560
