%chk=/home/boittier/MDCM/nms_sampling/cyanomethane_geom.xyz.dir/cyanomethane_2488.chk
%nproc=8
%mem=16000MB
#p B2PLYPD3/Def2QZVP 

cyanomethane

0 1
C  -6.570532  -1.127729   1.199384
C  -5.211303  -0.731231   0.880639
N  -4.102076  -0.570219   0.712475
H  -6.777258  -1.244873   2.231881
H  -6.853193  -2.073852   0.562518
H  -7.323518  -0.372998   0.675824
