%chk=/home/boittier/MDCM/nms_sampling/cyanomethane_geom.xyz.dir/cyanomethane_1197.chk
%nproc=8
%mem=16000MB
#p B2PLYPD3/Def2QZVP 

cyanomethane

0 1
C  -6.594453  -1.117498   1.173334
C  -5.202980  -0.793575   0.916455
N  -4.098202  -0.536009   0.695363
H  -6.703325  -1.193905   2.190371
H  -6.873198  -2.046546   0.662422
H  -7.241805  -0.304603   0.751070
