%chk=/home/boittier/MDCM/nms_sampling/cyanomethane_geom.xyz.dir/cyanomethane_371.chk
%nproc=8
%mem=16000MB
#p B2PLYPD3/Def2QZVP 

cyanomethane

0 1
C  -6.594620  -1.114856   1.167845
C  -5.201652  -0.774451   0.902690
N  -4.096664  -0.549557   0.704123
H  -6.746633  -1.233116   2.225895
H  -6.791988  -2.059967   0.680257
H  -7.315387  -0.327683   0.794582
