%chk=/home/boittier/MDCM/nms_sampling/cyanomethane_geom.xyz.dir/cyanomethane_1523.chk
%nproc=8
%mem=16000MB
#p B2PLYPD3/Def2QZVP 

cyanomethane

0 1
C  -6.600192  -1.115627   1.173113
C  -5.197160  -0.772136   0.890762
N  -4.090097  -0.552333   0.710392
H  -6.782733  -1.217774   2.266317
H  -6.782363  -2.039594   0.659911
H  -7.369778  -0.350348   0.768195
