%chk=/home/boittier/MDCM/nms_sampling/cyanomethane_geom.xyz.dir/cyanomethane_2412.chk
%nproc=8
%mem=16000MB
#p B2PLYPD3/Def2QZVP 

cyanomethane

0 1
C  -6.579093  -1.136580   1.185792
C  -5.201796  -0.728326   0.891266
N  -4.100690  -0.574580   0.705158
H  -6.709317  -1.159412   2.267489
H  -6.833408  -2.052672   0.649549
H  -7.442646  -0.366577   0.680775

