%chk=/home/boittier/MDCM/nms_sampling/cyanomethane_geom.xyz.dir/cyanomethane_271.chk
%nproc=8
%mem=16000MB
#p B2PLYPD3/Def2QZVP 

cyanomethane

0 1
C  -6.587450  -1.115565   1.172468
C  -5.204638  -0.790357   0.912338
N  -4.097211  -0.536883   0.697713
H  -6.731796  -1.240764   2.225849
H  -6.913994  -2.049039   0.628259
H  -7.250870  -0.297787   0.776891

