%chk=/home/boittier/MDCM/nms_sampling/cyanomethane_geom.xyz.dir/cyanomethane_2271.chk
%nproc=8
%mem=16000MB
#p B2PLYPD3/Def2QZVP 

cyanomethane

0 1
C  -6.595128  -1.101113   1.159609
C  -5.206450  -0.797918   0.936559
N  -4.097395  -0.536141   0.683842
H  -6.634982  -1.258222   2.172513
H  -6.856439  -2.071141   0.692982
H  -7.287585  -0.346830   0.810269

