%chk=/home/boittier/MDCM/nms_sampling/cyanomethane_geom.xyz.dir/cyanomethane_3237.chk
%nproc=8
%mem=16000MB
#p B2PLYPD3/Def2QZVP 

cyanomethane

0 1
C  -6.629500  -1.154531   1.150836
C  -5.190934  -0.714353   0.916809
N  -4.083025  -0.575270   0.696559
H  -6.709818  -1.193707   2.223545
H  -6.806424  -1.965995   0.735221
H  -7.235814  -0.346250   0.851634
