%chk=/home/boittier/MDCM/nms_sampling/cyanomethane_geom.xyz.dir/cyanomethane_1472.chk
%nproc=8
%mem=16000MB
#p B2PLYPD3/Def2QZVP 

cyanomethane

0 1
C  -6.599699  -1.105133   1.166130
C  -5.197475  -0.799027   0.874274
N  -4.088907  -0.536654   0.719058
H  -6.776282  -1.251460   2.264840
H  -6.852733  -2.038479   0.721997
H  -7.321948  -0.341922   0.863166

