%chk=/home/boittier/MDCM/nms_sampling/cyanomethane_geom.xyz.dir/cyanomethane_2277.chk
%nproc=8
%mem=16000MB
#p B2PLYPD3/Def2QZVP 

cyanomethane

0 1
C  -6.615482  -1.110287   1.173624
C  -5.195735  -0.807854   0.877028
N  -4.087454  -0.529554   0.715758
H  -6.693532  -1.218491   2.254238
H  -6.870388  -2.018660   0.699650
H  -7.238413  -0.326242   0.826415

