%chk=/home/boittier/MDCM/nms_sampling/cyanomethane_geom.xyz.dir/cyanomethane_2176.chk
%nproc=8
%mem=16000MB
#p B2PLYPD3/Def2QZVP 

cyanomethane

0 1
C  -6.591412  -1.109530   1.157936
C  -5.204396  -0.801002   0.882580
N  -4.101405  -0.533505   0.717833
H  -6.793507  -1.228362   2.239606
H  -6.800035  -2.025934   0.755347
H  -7.198852  -0.343958   0.872006
