%chk=/home/boittier/MDCM/nms_sampling/cyanomethane_geom.xyz.dir/cyanomethane_3426.chk
%nproc=8
%mem=16000MB
#p B2PLYPD3/Def2QZVP 

cyanomethane

0 1
C  -6.600452  -1.131794   1.175951
C  -5.194048  -0.801110   0.852174
N  -4.086810  -0.525316   0.732739
H  -6.884094  -1.232921   2.327149
H  -7.004400  -1.923211   0.628056
H  -7.124935  -0.284382   0.867017
