%chk=/home/boittier/MDCM/nms_sampling/cyanomethane_geom.xyz.dir/cyanomethane_3532.chk
%nproc=8
%mem=16000MB
#p B2PLYPD3/Def2QZVP 

cyanomethane

0 1
C  -6.579070  -1.117746   1.151145
C  -5.208975  -0.808389   0.905870
N  -4.100911  -0.523328   0.705760
H  -6.810232  -1.250345   2.321829
H  -6.954794  -1.980800   0.661332
H  -7.129828  -0.303498   0.868734
