%chk=/home/boittier/MDCM/nms_sampling/cyanomethane_geom.xyz.dir/cyanomethane_1290.chk
%nproc=8
%mem=16000MB
#p B2PLYPD3/Def2QZVP 

cyanomethane

0 1
C  -6.584112  -1.118921   1.164578
C  -5.206519  -0.804543   0.879589
N  -4.095839  -0.529218   0.717302
H  -6.801117  -1.209516   2.240390
H  -6.905104  -1.981000   0.725743
H  -7.226157  -0.312586   0.867939

