%chk=/home/boittier/MDCM/nms_sampling/cyanomethane_geom.xyz.dir/cyanomethane_327.chk
%nproc=8
%mem=16000MB
#p B2PLYPD3/Def2QZVP 

cyanomethane

0 1
C  -6.591121  -1.115334   1.170229
C  -5.202229  -0.784498   0.914044
N  -4.097249  -0.541036   0.697798
H  -6.743946  -1.226956   2.239167
H  -6.878140  -2.083796   0.642866
H  -7.259032  -0.295761   0.755353

