%chk=/home/boittier/MDCM/nms_sampling/cyanomethane_geom.xyz.dir/cyanomethane_701.chk
%nproc=8
%mem=16000MB
#p B2PLYPD3/Def2QZVP 

cyanomethane

0 1
C  -6.605525  -1.116615   1.161324
C  -5.200611  -0.773504   0.908759
N  -4.088669  -0.547252   0.701660
H  -6.755594  -1.259190   2.223702
H  -6.836296  -2.046436   0.682034
H  -7.254163  -0.329333   0.831634

