%chk=/home/boittier/MDCM/nms_sampling/cyanomethane_geom.xyz.dir/cyanomethane_581.chk
%nproc=8
%mem=16000MB
#p B2PLYPD3/Def2QZVP 

cyanomethane

0 1
C  -6.603199  -1.116688   1.167262
C  -5.200592  -0.795610   0.909373
N  -4.090460  -0.533898   0.702126
H  -6.779903  -1.197006   2.242178
H  -6.874702  -2.050092   0.668630
H  -7.196249  -0.314849   0.759482
