%chk=/home/boittier/MDCM/nms_sampling/cyanomethane_geom.xyz.dir/cyanomethane_3467.chk
%nproc=8
%mem=16000MB
#p B2PLYPD3/Def2QZVP 

cyanomethane

0 1
C  -6.592766  -1.129722   1.169794
C  -5.205680  -0.763683   0.876148
N  -4.107062  -0.550388   0.724087
H  -6.863980  -1.211896   2.187142
H  -6.725355  -2.085320   0.721656
H  -7.089676  -0.268814   0.814170
