%chk=/home/boittier/MDCM/nms_sampling/cyanomethane_geom.xyz.dir/cyanomethane_1294.chk
%nproc=8
%mem=16000MB
#p B2PLYPD3/Def2QZVP 

cyanomethane

0 1
C  -6.581919  -1.110163   1.158647
C  -5.203231  -0.790671   0.940528
N  -4.103369  -0.537906   0.682185
H  -6.682802  -1.251458   2.213900
H  -6.914681  -2.040384   0.654226
H  -7.297303  -0.335048   0.798469
