%chk=/home/boittier/MDCM/nms_sampling/cyanomethane_geom.xyz.dir/cyanomethane_3008.chk
%nproc=8
%mem=16000MB
#p B2PLYPD3/Def2QZVP 

cyanomethane

0 1
C  -6.615157  -1.103118   1.165698
C  -5.197470  -0.781655   0.947949
N  -4.082280  -0.548801   0.677128
H  -6.645010  -1.192041   2.167878
H  -6.804080  -2.137465   0.698092
H  -7.409447  -0.352215   0.698524

