%chk=/home/boittier/MDCM/nms_sampling/cyanomethane_geom.xyz.dir/cyanomethane_669.chk
%nproc=8
%mem=16000MB
#p B2PLYPD3/Def2QZVP 

cyanomethane

0 1
C  -6.605192  -1.106234   1.166009
C  -5.197788  -0.796478   0.921428
N  -4.090411  -0.535921   0.693543
H  -6.720416  -1.254949   2.198578
H  -6.865979  -2.058350   0.657664
H  -7.273943  -0.324595   0.797008

