%chk=/home/boittier/MDCM/nms_sampling/cyanomethane_geom.xyz.dir/cyanomethane_1442.chk
%nproc=8
%mem=16000MB
#p B2PLYPD3/Def2QZVP 

cyanomethane

0 1
C  -6.597123  -1.123349   1.177501
C  -5.202262  -0.785448   0.876177
N  -4.088588  -0.538346   0.721497
H  -6.885478  -1.209241   2.241001
H  -6.870110  -2.054630   0.659897
H  -7.172963  -0.284160   0.775852
