%chk=/home/boittier/MDCM/nms_sampling/cyanomethane_geom.xyz.dir/cyanomethane_1687.chk
%nproc=8
%mem=16000MB
#p B2PLYPD3/Def2QZVP 

cyanomethane

0 1
C  -6.609892  -1.118885   1.160312
C  -5.201100  -0.781614   0.935727
N  -4.086574  -0.539632   0.686671
H  -6.717550  -1.266693   2.198049
H  -6.902652  -2.040349   0.634070
H  -7.196365  -0.294581   0.813250
