%chk=/home/boittier/MDCM/nms_sampling/cyanomethane_geom.xyz.dir/cyanomethane_879.chk
%nproc=8
%mem=16000MB
#p B2PLYPD3/Def2QZVP 

cyanomethane

0 1
C  -6.600808  -1.111879   1.165107
C  -5.200753  -0.781726   0.905898
N  -4.095791  -0.544426   0.702959
H  -6.738658  -1.229340   2.234566
H  -6.806642  -2.057030   0.688269
H  -7.257774  -0.353062   0.789365
