%chk=/home/boittier/MDCM/nms_sampling/cyanomethane_geom.xyz.dir/cyanomethane_1518.chk
%nproc=8
%mem=16000MB
#p B2PLYPD3/Def2QZVP 

cyanomethane

0 1
C  -6.608684  -1.104817   1.169871
C  -5.196030  -0.813124   0.932241
N  -4.090256  -0.528139   0.688078
H  -6.718023  -1.210974   2.160735
H  -6.841738  -2.057343   0.652262
H  -7.282322  -0.298419   0.752714

