%chk=/home/boittier/MDCM/nms_sampling/cyanomethane_geom.xyz.dir/cyanomethane_3478.chk
%nproc=8
%mem=16000MB
#p B2PLYPD3/Def2QZVP 

cyanomethane

0 1
C  -6.583454  -1.111137   1.173389
C  -5.204123  -0.742290   0.910674
N  -4.109399  -0.571110   0.700406
H  -6.734580  -1.278502   2.225182
H  -6.655123  -2.172005   0.627837
H  -7.390841  -0.293038   0.741204

