%chk=/home/boittier/MDCM/nms_sampling/cyanomethane_geom.xyz.dir/cyanomethane_1526.chk
%nproc=8
%mem=16000MB
#p B2PLYPD3/Def2QZVP 

cyanomethane

0 1
C  -6.600835  -1.128586   1.164564
C  -5.201713  -0.760655   0.904295
N  -4.097136  -0.549941   0.704159
H  -6.748099  -1.264661   2.253264
H  -6.867450  -2.028733   0.641155
H  -7.155452  -0.309467   0.825189
