%chk=/home/boittier/MDCM/nms_sampling/cyanomethane_geom.xyz.dir/cyanomethane_2926.chk
%nproc=8
%mem=16000MB
#p B2PLYPD3/Def2QZVP 

cyanomethane

0 1
C  -6.571896  -1.134271   1.178386
C  -5.205095  -0.723109   0.894533
N  -4.109121  -0.577575   0.706325
H  -6.744270  -1.228175   2.215281
H  -6.761070  -2.087500   0.655046
H  -7.405665  -0.299828   0.760499

