%chk=/home/boittier/MDCM/nms_sampling/cyanomethane_geom.xyz.dir/cyanomethane_1992.chk
%nproc=8
%mem=16000MB
#p B2PLYPD3/Def2QZVP 

cyanomethane

0 1
C  -6.596629  -1.104753   1.158289
C  -5.206923  -0.790591   0.939785
N  -4.096661  -0.538917   0.685586
H  -6.709377  -1.296143   2.208839
H  -6.815064  -2.084609   0.622910
H  -7.241590  -0.290743   0.809988

