%chk=/home/boittier/MDCM/nms_sampling/cyanomethane_geom.xyz.dir/cyanomethane_2252.chk
%nproc=8
%mem=16000MB
#p B2PLYPD3/Def2QZVP 

cyanomethane

0 1
C  -6.591139  -1.116083   1.153261
C  -5.208413  -0.810206   0.930385
N  -4.098077  -0.527614   0.693591
H  -6.787311  -1.186356   2.214395
H  -6.803024  -2.028579   0.693655
H  -7.204673  -0.264380   0.802501
