%chk=/home/boittier/MDCM/nms_sampling/cyanomethane_geom.xyz.dir/cyanomethane_3137.chk
%nproc=8
%mem=16000MB
#p B2PLYPD3/Def2QZVP 

cyanomethane

0 1
C  -6.599093  -1.114983   1.151079
C  -5.198021  -0.736891   0.911008
N  -4.081469  -0.568536   0.705548
H  -6.939556  -1.277449   2.274437
H  -6.800779  -2.134662   0.703123
H  -7.316221  -0.385215   0.795230
