%chk=/home/boittier/MDCM/nms_sampling/cyanomethane_geom.xyz.dir/cyanomethane_1804.chk
%nproc=8
%mem=16000MB
#p B2PLYPD3/Def2QZVP 

cyanomethane

0 1
C  -6.599555  -1.101355   1.160236
C  -5.201689  -0.827575   0.912650
N  -4.089236  -0.518866   0.702614
H  -6.819514  -1.227982   2.299132
H  -6.863261  -2.042660   0.638246
H  -7.217909  -0.298003   0.784989
