%chk=/home/boittier/MDCM/nms_sampling/cyanomethane_geom.xyz.dir/cyanomethane_14.chk
%nproc=8
%mem=16000MB
#p B2PLYPD3/Def2QZVP 

cyanomethane

0 1
C  -6.598604  -1.116930   1.153717
C  -5.200603  -0.789538   0.931985
N  -4.089147  -0.538216   0.689921
H  -6.770865  -1.226072   2.236602
H  -6.877802  -1.996319   0.669973
H  -7.276535  -0.339623   0.814071
