%chk=/home/boittier/MDCM/nms_sampling/cyanomethane_geom.xyz.dir/cyanomethane_3272.chk
%nproc=8
%mem=16000MB
#p B2PLYPD3/Def2QZVP 

cyanomethane

0 1
C  -6.602225  -1.076020   1.168542
C  -5.202633  -0.865255   0.900053
N  -4.100903  -0.499973   0.707413
H  -6.721907  -1.330623   2.212571
H  -6.830614  -2.018553   0.619088
H  -7.139543  -0.320502   0.873768
