%chk=/home/boittier/MDCM/nms_sampling/cyanomethane_geom.xyz.dir/cyanomethane_2858.chk
%nproc=8
%mem=16000MB
#p B2PLYPD3/Def2QZVP 

cyanomethane

0 1
C  -6.595960  -1.110422   1.175148
C  -5.205597  -0.740455   0.893333
N  -4.101911  -0.570726   0.711389
H  -6.770861  -1.315372   2.234192
H  -6.632884  -2.174814   0.618683
H  -7.312117  -0.287086   0.774996
