%chk=/home/boittier/MDCM/nms_sampling/cyanomethane_geom.xyz.dir/cyanomethane_1468.chk
%nproc=8
%mem=16000MB
#p B2PLYPD3/Def2QZVP 

cyanomethane

0 1
C  -6.598063  -1.097034   1.169947
C  -5.204660  -0.824001   0.911198
N  -4.094316  -0.519783   0.698940
H  -6.705527  -1.269360   2.215959
H  -6.906591  -2.059869   0.642278
H  -7.196749  -0.312718   0.805430
