%chk=/home/boittier/MDCM/nms_sampling/cyanomethane_geom.xyz.dir/cyanomethane_876.chk
%nproc=8
%mem=16000MB
#p B2PLYPD3/Def2QZVP 

cyanomethane

0 1
C  -6.595723  -1.112323   1.167373
C  -5.202488  -0.797586   0.893068
N  -4.098822  -0.534426   0.711874
H  -6.791146  -1.220982   2.250406
H  -6.817274  -2.077312   0.684009
H  -7.191600  -0.288849   0.794123

