%chk=/home/boittier/MDCM/nms_sampling/cyanomethane_geom.xyz.dir/cyanomethane_3166.chk
%nproc=8
%mem=16000MB
#p B2PLYPD3/Def2QZVP 

cyanomethane

0 1
C  -6.590287  -1.122334   1.188790
C  -5.211409  -0.768340   0.893890
N  -4.103698  -0.548285   0.705878
H  -6.664060  -1.222805   2.230140
H  -6.845057  -2.082651   0.602961
H  -7.181392  -0.311795   0.708785
