%chk=/home/boittier/MDCM/nms_sampling/cyanomethane_geom.xyz.dir/cyanomethane_2111.chk
%nproc=8
%mem=16000MB
#p B2PLYPD3/Def2QZVP 

cyanomethane

0 1
C  -6.584888  -1.111352   1.146949
C  -5.208000  -0.793818   0.954625
N  -4.098604  -0.538029   0.677955
H  -6.724747  -1.199649   2.248139
H  -6.838796  -2.031746   0.682176
H  -7.307040  -0.349006   0.770941
