%chk=/home/boittier/MDCM/nms_sampling/cyanomethane_geom.xyz.dir/cyanomethane_1172.chk
%nproc=8
%mem=16000MB
#p B2PLYPD3/Def2QZVP 

cyanomethane

0 1
C  -6.590956  -1.110833   1.170817
C  -5.203069  -0.775967   0.908222
N  -4.098708  -0.547358   0.701314
H  -6.754793  -1.261424   2.226651
H  -6.821890  -2.067595   0.638717
H  -7.276475  -0.342773   0.777037
