%chk=/home/boittier/MDCM/nms_sampling/cyanomethane_geom.xyz.dir/cyanomethane_562.chk
%nproc=8
%mem=16000MB
#p B2PLYPD3/Def2QZVP 

cyanomethane

0 1
C  -6.589873  -1.112657   1.173687
C  -5.204489  -0.802680   0.903976
N  -4.096436  -0.530002   0.702008
H  -6.727276  -1.241578   2.217169
H  -6.925380  -2.033163   0.641483
H  -7.226965  -0.298223   0.798364
