%chk=/home/boittier/MDCM/nms_sampling/cyanomethane_geom.xyz.dir/cyanomethane_2383.chk
%nproc=8
%mem=16000MB
#p B2PLYPD3/Def2QZVP 

cyanomethane

0 1
C  -6.599297  -1.126784   1.162673
C  -5.198165  -0.783479   0.887581
N  -4.091615  -0.538911   0.712908
H  -6.793036  -1.180950   2.262162
H  -6.916563  -1.986033   0.732448
H  -7.200809  -0.360415   0.821491

