%chk=/home/boittier/MDCM/nms_sampling/cyanomethane_geom.xyz.dir/cyanomethane_1943.chk
%nproc=8
%mem=16000MB
#p B2PLYPD3/Def2QZVP 

cyanomethane

0 1
C  -6.598137  -1.108595   1.164697
C  -5.202424  -0.796897   0.930975
N  -4.098556  -0.537690   0.688002
H  -6.663706  -1.205428   2.209600
H  -6.808811  -2.095389   0.675055
H  -7.303439  -0.287184   0.753279

