%chk=/home/boittier/MDCM/nms_sampling/cyanomethane_geom.xyz.dir/cyanomethane_1749.chk
%nproc=8
%mem=16000MB
#p B2PLYPD3/Def2QZVP 

cyanomethane

0 1
C  -6.603591  -1.111766   1.157236
C  -5.198148  -0.793865   0.897699
N  -4.091808  -0.538370   0.711687
H  -6.852639  -1.181136   2.267819
H  -6.774526  -2.046108   0.735615
H  -7.230750  -0.365026   0.785244

