%chk=/home/boittier/MDCM/nms_sampling/cyanomethane_geom.xyz.dir/cyanomethane_1282.chk
%nproc=8
%mem=16000MB
#p B2PLYPD3/Def2QZVP 

cyanomethane

0 1
C  -6.595026  -1.115131   1.187535
C  -5.203969  -0.794742   0.863280
N  -4.101585  -0.536343   0.725550
H  -6.766711  -1.218399   2.264360
H  -6.800099  -2.072595   0.635057
H  -7.185582  -0.276866   0.758646

