%chk=/home/boittier/MDCM/nms_sampling/cyanomethane_geom.xyz.dir/cyanomethane_3559.chk
%nproc=8
%mem=16000MB
#p B2PLYPD3/Def2QZVP 

cyanomethane

0 1
C  -6.610922  -1.089736   1.185370
C  -5.202458  -0.853704   0.908711
N  -4.082815  -0.507837   0.702379
H  -6.780313  -1.209949   2.162182
H  -6.823738  -2.099933   0.612136
H  -7.237657  -0.240081   0.715597
