%chk=/home/boittier/MDCM/nms_sampling/cyanomethane_geom.xyz.dir/cyanomethane_242.chk
%nproc=8
%mem=16000MB
#p B2PLYPD3/Def2QZVP 

cyanomethane

0 1
C  -6.604562  -1.119618   1.171675
C  -5.197964  -0.770090   0.903187
N  -4.090097  -0.549414   0.703502
H  -6.752069  -1.242154   2.238269
H  -6.840557  -2.058361   0.642832
H  -7.277806  -0.312176   0.780646

