%chk=/home/boittier/MDCM/nms_sampling/cyanomethane_geom.xyz.dir/cyanomethane_3191.chk
%nproc=8
%mem=16000MB
#p B2PLYPD3/Def2QZVP 

cyanomethane

0 1
C  -6.603684  -1.114588   1.191910
C  -5.191484  -0.764678   0.889229
N  -4.087013  -0.549877   0.705199
H  -6.706054  -1.326470   2.162318
H  -6.990857  -2.060857   0.587365
H  -7.302283  -0.328840   0.804136
