%chk=/home/boittier/MDCM/nms_sampling/cyanomethane_geom.xyz.dir/cyanomethane_3534.chk
%nproc=8
%mem=16000MB
#p B2PLYPD3/Def2QZVP 

cyanomethane

0 1
C  -6.590288  -1.084113   1.160538
C  -5.211079  -0.825831   0.934922
N  -4.101082  -0.520115   0.687334
H  -6.676665  -1.328080   2.179452
H  -6.864559  -2.109649   0.642669
H  -7.188420  -0.317325   0.830569
