%chk=/home/boittier/MDCM/nms_sampling/cyanomethane_geom.xyz.dir/cyanomethane_1987.chk
%nproc=8
%mem=16000MB
#p B2PLYPD3/Def2QZVP 

cyanomethane

0 1
C  -6.600560  -1.110252   1.162549
C  -5.195918  -0.801224   0.888043
N  -4.090483  -0.530875   0.715496
H  -6.867269  -1.261430   2.257088
H  -6.881744  -1.987464   0.674042
H  -7.189822  -0.361756   0.854665
