%chk=/home/boittier/MDCM/nms_sampling/cyanomethane_geom.xyz.dir/cyanomethane_2731.chk
%nproc=8
%mem=16000MB
#p B2PLYPD3/Def2QZVP 

cyanomethane

0 1
C  -6.594586  -1.144307   1.153276
C  -5.200931  -0.718148   0.914879
N  -4.083924  -0.573158   0.697322
H  -6.806170  -1.249124   2.241535
H  -6.919979  -1.957226   0.692134
H  -7.314830  -0.396063   0.858776
