%chk=/home/boittier/MDCM/nms_sampling/cyanomethane_geom.xyz.dir/cyanomethane_1120.chk
%nproc=8
%mem=16000MB
#p B2PLYPD3/Def2QZVP 

cyanomethane

0 1
C  -6.601517  -1.117904   1.161661
C  -5.198618  -0.777673   0.913866
N  -4.091247  -0.544634   0.700819
H  -6.806804  -1.228488   2.266227
H  -6.837760  -2.063624   0.655469
H  -7.239679  -0.316125   0.775354
