%chk=/home/boittier/MDCM/nms_sampling/cyanomethane_geom.xyz.dir/cyanomethane_2983.chk
%nproc=8
%mem=16000MB
#p B2PLYPD3/Def2QZVP 

cyanomethane

0 1
C  -6.615186  -1.107255   1.178882
C  -5.201884  -0.840328   0.925254
N  -4.082589  -0.511476   0.686465
H  -6.585230  -1.120583   2.140382
H  -6.961019  -2.044741   0.710722
H  -7.253048  -0.294416   0.714157
