%chk=/home/boittier/MDCM/nms_sampling/cyanomethane_geom.xyz.dir/cyanomethane_3429.chk
%nproc=8
%mem=16000MB
#p B2PLYPD3/Def2QZVP 

cyanomethane

0 1
C  -6.591780  -1.098296   1.149361
C  -5.208015  -0.799314   0.882397
N  -4.096135  -0.534383   0.720875
H  -6.857158  -1.321530   2.329437
H  -6.787826  -2.023022   0.690419
H  -7.175578  -0.381432   0.911133

