%chk=/home/boittier/MDCM/nms_sampling/cyanomethane_geom.xyz.dir/cyanomethane_2816.chk
%nproc=8
%mem=16000MB
#p B2PLYPD3/Def2QZVP 

cyanomethane

0 1
C  -6.606415  -1.114641   1.151416
C  -5.191274  -0.791840   0.896915
N  -4.084358  -0.536208   0.711684
H  -6.881476  -1.225010   2.338614
H  -6.896985  -2.026878   0.700672
H  -7.232592  -0.351995   0.827694

