%chk=/home/boittier/MDCM/nms_sampling/cyanomethane_geom.xyz.dir/cyanomethane_733.chk
%nproc=8
%mem=16000MB
#p B2PLYPD3/Def2QZVP 

cyanomethane

0 1
C  -6.599965  -1.113556   1.174198
C  -5.201177  -0.811233   0.902403
N  -4.090965  -0.525787   0.703234
H  -6.733462  -1.211366   2.236972
H  -6.916017  -2.011097   0.640349
H  -7.226268  -0.301542   0.779973
