%chk=/home/boittier/MDCM/nms_sampling/cyanomethane_geom.xyz.dir/cyanomethane_1464.chk
%nproc=8
%mem=16000MB
#p B2PLYPD3/Def2QZVP 

cyanomethane

0 1
C  -6.595362  -1.110515   1.186629
C  -5.207938  -0.800005   0.866413
N  -4.098419  -0.533091   0.723833
H  -6.762846  -1.231066   2.230779
H  -6.816908  -2.084711   0.651684
H  -7.163922  -0.286245   0.770967
