%chk=/home/boittier/MDCM/nms_sampling/cyanomethane_geom.xyz.dir/cyanomethane_652.chk
%nproc=8
%mem=16000MB
#p B2PLYPD3/Def2QZVP 

cyanomethane

0 1
C  -6.596969  -1.113898   1.177126
C  -5.198892  -0.789228   0.890809
N  -4.091984  -0.537490   0.709627
H  -6.773679  -1.251468   2.231309
H  -6.914018  -2.042808   0.639630
H  -7.236330  -0.323513   0.791988

