%chk=/home/boittier/MDCM/nms_sampling/cyanomethane_geom.xyz.dir/cyanomethane_3169.chk
%nproc=8
%mem=16000MB
#p B2PLYPD3/Def2QZVP 

cyanomethane

0 1
C  -6.570024  -1.103122   1.182520
C  -5.210693  -0.785835   0.856577
N  -4.104756  -0.543271   0.732108
H  -6.892427  -1.243843   2.295384
H  -6.799032  -2.155935   0.665982
H  -7.237172  -0.324558   0.742947

