%chk=/home/boittier/MDCM/nms_sampling/cyanomethane_geom.xyz.dir/cyanomethane_281.chk
%nproc=8
%mem=16000MB
#p B2PLYPD3/Def2QZVP 

cyanomethane

0 1
C  -6.598444  -1.119893   1.161021
C  -5.204846  -0.784695   0.930590
N  -4.095419  -0.538180   0.689447
H  -6.709067  -1.246194   2.227142
H  -6.890745  -2.030170   0.635241
H  -7.187075  -0.301681   0.799206
