%chk=/home/boittier/MDCM/nms_sampling/cyanomethane_geom.xyz.dir/cyanomethane_33.chk
%nproc=8
%mem=16000MB
#p B2PLYPD3/Def2QZVP 

cyanomethane

0 1
C  -6.591519  -1.121724   1.164233
C  -5.202815  -0.783327   0.924879
N  -4.098502  -0.540056   0.693731
H  -6.770661  -1.205004   2.229151
H  -6.869426  -2.031564   0.647643
H  -7.212764  -0.318736   0.757940
