%chk=/home/boittier/MDCM/nms_sampling/cyanomethane_geom.xyz.dir/cyanomethane_881.chk
%nproc=8
%mem=16000MB
#p B2PLYPD3/Def2QZVP 

cyanomethane

0 1
C  -6.593591  -1.112507   1.162855
C  -5.200942  -0.773558   0.904259
N  -4.094650  -0.547930   0.703565
H  -6.767295  -1.259013   2.233586
H  -6.855110  -2.053476   0.689952
H  -7.280512  -0.363997   0.819866

