%chk=/home/boittier/MDCM/nms_sampling/cyanomethane_geom.xyz.dir/cyanomethane_2264.chk
%nproc=8
%mem=16000MB
#p B2PLYPD3/Def2QZVP 

cyanomethane

0 1
C  -6.602821  -1.131028   1.169325
C  -5.205192  -0.757838   0.904758
N  -4.094395  -0.554567   0.703459
H  -6.735859  -1.192302   2.219417
H  -6.796267  -2.036631   0.681124
H  -7.212072  -0.328237   0.765460

