%chk=/home/boittier/MDCM/nms_sampling/cyanomethane_geom.xyz.dir/cyanomethane_1930.chk
%nproc=8
%mem=16000MB
#p B2PLYPD3/Def2QZVP 

cyanomethane

0 1
C  -6.599716  -1.133302   1.163112
C  -5.200264  -0.750052   0.911204
N  -4.085771  -0.557374   0.700670
H  -6.813916  -1.181213   2.259970
H  -6.891590  -2.041108   0.690476
H  -7.257102  -0.362015   0.748610

