%chk=/home/boittier/MDCM/nms_sampling/cyanomethane_geom.xyz.dir/cyanomethane_796.chk
%nproc=8
%mem=16000MB
#p B2PLYPD3/Def2QZVP 

cyanomethane

0 1
C  -6.598587  -1.113913   1.169166
C  -5.204279  -0.795530   0.889772
N  -4.094969  -0.534331   0.713134
H  -6.788755  -1.222378   2.247670
H  -6.841881  -2.056068   0.681951
H  -7.167394  -0.314651   0.795668

