%chk=/home/boittier/MDCM/nms_sampling/cyanomethane_geom.xyz.dir/cyanomethane_3418.chk
%nproc=8
%mem=16000MB
#p B2PLYPD3/Def2QZVP 

cyanomethane

0 1
C  -6.615429  -1.134744   1.159499
C  -5.201089  -0.777200   0.982189
N  -4.082461  -0.538378   0.665247
H  -6.781153  -1.170168   2.125293
H  -6.910079  -2.082475   0.610822
H  -7.116181  -0.222920   0.684998

