%chk=/home/boittier/MDCM/nms_sampling/cyanomethane_geom.xyz.dir/cyanomethane_1944.chk
%nproc=8
%mem=16000MB
#p B2PLYPD3/Def2QZVP 

cyanomethane

0 1
C  -6.611691  -1.116476   1.155706
C  -5.197869  -0.781318   0.943769
N  -4.086611  -0.544027   0.684246
H  -6.755915  -1.209065   2.172917
H  -6.807057  -2.055937   0.688713
H  -7.271410  -0.319861   0.775524

