%chk=/home/boittier/MDCM/nms_sampling/cyanomethane_geom.xyz.dir/cyanomethane_1126.chk
%nproc=8
%mem=16000MB
#p B2PLYPD3/Def2QZVP 

cyanomethane

0 1
C  -6.595729  -1.118342   1.167842
C  -5.201005  -0.779872   0.891978
N  -4.090566  -0.541976   0.710574
H  -6.803914  -1.243692   2.240251
H  -6.903033  -2.040001   0.680889
H  -7.225910  -0.333112   0.818527
