%chk=/home/boittier/MDCM/nms_sampling/cyanomethane_geom.xyz.dir/cyanomethane_849.chk
%nproc=8
%mem=16000MB
#p B2PLYPD3/Def2QZVP 

cyanomethane

0 1
C  -6.598975  -1.107420   1.172259
C  -5.202311  -0.795552   0.888289
N  -4.096466  -0.537420   0.713100
H  -6.766159  -1.240703   2.256151
H  -6.794877  -2.072946   0.662494
H  -7.235764  -0.314266   0.788707
