%chk=/home/boittier/MDCM/nms_sampling/cyanomethane_geom.xyz.dir/cyanomethane_563.chk
%nproc=8
%mem=16000MB
#p B2PLYPD3/Def2QZVP 

cyanomethane

0 1
C  -6.592239  -1.110483   1.158512
C  -5.204177  -0.811862   0.913175
N  -4.095987  -0.525725   0.701439
H  -6.794588  -1.230084   2.253707
H  -6.868635  -2.018394   0.666531
H  -7.199394  -0.301646   0.820436

