%chk=/home/boittier/MDCM/nms_sampling/cyanomethane_geom.xyz.dir/cyanomethane_776.chk
%nproc=8
%mem=16000MB
#p B2PLYPD3/Def2QZVP 

cyanomethane

0 1
C  -6.601267  -1.111722   1.161887
C  -5.199547  -0.792183   0.888772
N  -4.093021  -0.537611   0.713311
H  -6.784310  -1.245713   2.247336
H  -6.837201  -2.047962   0.713572
H  -7.227584  -0.320659   0.850848
