%chk=/home/boittier/MDCM/nms_sampling/cyanomethane_geom.xyz.dir/cyanomethane_3160.chk
%nproc=8
%mem=16000MB
#p B2PLYPD3/Def2QZVP 

cyanomethane

0 1
C  -6.618779  -1.093786   1.171048
C  -5.194177  -0.747066   0.905931
N  -4.088238  -0.564810   0.700927
H  -6.692624  -1.397180   2.245150
H  -6.782703  -2.153996   0.602358
H  -7.295338  -0.410220   0.808390
