%chk=/home/boittier/MDCM/nms_sampling/cyanomethane_geom.xyz.dir/cyanomethane_1548.chk
%nproc=8
%mem=16000MB
#p B2PLYPD3/Def2QZVP 

cyanomethane

0 1
C  -6.612887  -1.109422   1.155736
C  -5.196116  -0.795426   0.881095
N  -4.086898  -0.536347   0.718818
H  -6.807925  -1.258286   2.252005
H  -6.811903  -2.040764   0.746844
H  -7.215487  -0.324419   0.897220

