%chk=/home/boittier/MDCM/nms_sampling/cyanomethane_geom.xyz.dir/cyanomethane_2559.chk
%nproc=8
%mem=16000MB
#p B2PLYPD3/Def2QZVP 

cyanomethane

0 1
C  -6.593976  -1.131631   1.166958
C  -5.202325  -0.768907   0.956680
N  -4.102302  -0.547388   0.670118
H  -6.567647  -1.150369   2.203798
H  -6.927052  -2.056062   0.650503
H  -7.280812  -0.300051   0.690632

