%chk=/home/boittier/MDCM/nms_sampling/cyanomethane_geom.xyz.dir/cyanomethane_3317.chk
%nproc=8
%mem=16000MB
#p B2PLYPD3/Def2QZVP 

cyanomethane

0 1
C  -6.622693  -1.084278   1.158892
C  -5.194593  -0.861821   0.922247
N  -4.084921  -0.501389   0.699928
H  -6.824399  -1.232458   2.256421
H  -6.813830  -2.055122   0.643114
H  -7.129986  -0.314538   0.774099

