%chk=/home/boittier/MDCM/nms_sampling/cyanomethane_geom.xyz.dir/cyanomethane_2867.chk
%nproc=8
%mem=16000MB
#p B2PLYPD3/Def2QZVP 

cyanomethane

0 1
C  -6.613806  -1.128996   1.167634
C  -5.204009  -0.834768   0.918540
N  -4.085104  -0.509304   0.699369
H  -6.785115  -1.121539   2.203342
H  -6.890078  -2.015938   0.661015
H  -7.079522  -0.154254   0.759529

