%chk=/home/boittier/MDCM/nms_sampling/cyanomethane_geom.xyz.dir/cyanomethane_3306.chk
%nproc=8
%mem=16000MB
#p B2PLYPD3/Def2QZVP 

cyanomethane

0 1
C  -6.603170  -1.107820   1.184899
C  -5.199046  -0.832132   0.905780
N  -4.100767  -0.510413   0.697986
H  -6.622797  -1.254776   2.175257
H  -7.003288  -1.970761   0.592161
H  -7.098608  -0.314772   0.796632
