%chk=/home/boittier/MDCM/nms_sampling/cyanomethane_geom.xyz.dir/cyanomethane_2073.chk
%nproc=8
%mem=16000MB
#p B2PLYPD3/Def2QZVP 

cyanomethane

0 1
C  -6.591474  -1.119999   1.167725
C  -5.202260  -0.791586   0.927495
N  -4.090388  -0.534430   0.692029
H  -6.800625  -1.204641   2.234328
H  -6.947946  -2.074840   0.628441
H  -7.223986  -0.273878   0.733271
