%chk=/home/boittier/MDCM/nms_sampling/cyanomethane_geom.xyz.dir/cyanomethane_1913.chk
%nproc=8
%mem=16000MB
#p B2PLYPD3/Def2QZVP 

cyanomethane

0 1
C  -6.598896  -1.122182   1.161666
C  -5.200155  -0.791120   0.894083
N  -4.097922  -0.539150   0.711869
H  -6.800646  -1.174667   2.252202
H  -6.766828  -2.002728   0.715126
H  -7.236435  -0.312284   0.809158

