%chk=/home/boittier/MDCM/nms_sampling/cyanomethane_geom.xyz.dir/cyanomethane_3275.chk
%nproc=8
%mem=16000MB
#p B2PLYPD3/Def2QZVP 

cyanomethane

0 1
C  -6.611980  -1.098743   1.159121
C  -5.188845  -0.778351   0.942312
N  -4.085471  -0.545840   0.680261
H  -6.672238  -1.345675   2.286993
H  -6.930022  -2.079058   0.575558
H  -7.355458  -0.362141   0.802521
