%chk=/home/boittier/MDCM/nms_sampling/cyanomethane_geom.xyz.dir/cyanomethane_1.chk
%nproc=8
%mem=16000MB
#p B2PLYPD3/Def2QZVP 

cyanomethane

0 1
C  -6.600652  -1.121569   1.164127
C  -5.198706  -0.783776   0.927192
N  -4.090607  -0.540548   0.691363
H  -6.758224  -1.195650   2.217041
H  -6.886836  -2.022010   0.660986
H  -7.257522  -0.329365   0.759445

