%chk=/home/boittier/MDCM/nms_sampling/cyanomethane_geom.xyz.dir/cyanomethane_1669.chk
%nproc=8
%mem=16000MB
#p B2PLYPD3/Def2QZVP 

cyanomethane

0 1
C  -6.582829  -1.116902   1.152445
C  -5.206397  -0.775239   0.938483
N  -4.097579  -0.545877   0.688760
H  -6.823610  -1.242077   2.256637
H  -6.843234  -2.048396   0.642728
H  -7.261271  -0.331115   0.780383

