%chk=/home/boittier/MDCM/nms_sampling/cyanomethane_geom.xyz.dir/cyanomethane_2782.chk
%nproc=8
%mem=16000MB
#p B2PLYPD3/Def2QZVP 

cyanomethane

0 1
C  -6.600878  -1.104377   1.127399
C  -5.202878  -0.814942   0.975516
N  -4.087485  -0.524999   0.668802
H  -6.738893  -1.234275   2.196038
H  -6.887895  -2.028699   0.743257
H  -7.265090  -0.319114   0.870320
