%chk=/home/boittier/MDCM/nms_sampling/cyanomethane_geom.xyz.dir/cyanomethane_1411.chk
%nproc=8
%mem=16000MB
#p B2PLYPD3/Def2QZVP 

cyanomethane

0 1
C  -6.595374  -1.113656   1.148606
C  -5.207304  -0.802452   0.939042
N  -4.097591  -0.530786   0.687469
H  -6.733486  -1.240869   2.195951
H  -6.830901  -2.023206   0.689956
H  -7.198552  -0.281267   0.851300

