%chk=/home/boittier/MDCM/nms_sampling/cyanomethane_geom.xyz.dir/cyanomethane_816.chk
%nproc=8
%mem=16000MB
#p B2PLYPD3/Def2QZVP 

cyanomethane

0 1
C  -6.599935  -1.119279   1.160513
C  -5.197916  -0.783223   0.930934
N  -4.091496  -0.538823   0.689671
H  -6.762866  -1.239404   2.226607
H  -6.929591  -2.019981   0.641997
H  -7.215489  -0.335582   0.789318

