%chk=/home/boittier/MDCM/nms_sampling/cyanomethane_geom.xyz.dir/cyanomethane_1847.chk
%nproc=8
%mem=16000MB
#p B2PLYPD3/Def2QZVP 

cyanomethane

0 1
C  -6.601317  -1.113210   1.176671
C  -5.196307  -0.821789   0.905943
N  -4.089644  -0.521193   0.701892
H  -6.768570  -1.156512   2.196969
H  -6.915552  -2.021995   0.672511
H  -7.252301  -0.295633   0.740289

