%chk=/home/boittier/MDCM/nms_sampling/cyanomethane_geom.xyz.dir/cyanomethane_889.chk
%nproc=8
%mem=16000MB
#p B2PLYPD3/Def2QZVP 

cyanomethane

0 1
C  -6.586839  -1.112064   1.168346
C  -5.203252  -0.795364   0.892949
N  -4.098757  -0.535779   0.712727
H  -6.850777  -1.229819   2.243478
H  -6.829995  -2.050220   0.667663
H  -7.218925  -0.315254   0.794045

