%chk=/home/boittier/MDCM/nms_sampling/cyanomethane_geom.xyz.dir/cyanomethane_1466.chk
%nproc=8
%mem=16000MB
#p B2PLYPD3/Def2QZVP 

cyanomethane

0 1
C  -6.598833  -1.109528   1.183385
C  -5.195910  -0.812119   0.913207
N  -4.087756  -0.525400   0.697188
H  -6.776907  -1.215712   2.203942
H  -6.959422  -2.054606   0.592846
H  -7.261481  -0.289781   0.716295

