%chk=/home/boittier/MDCM/nms_sampling/cyanomethane_geom.xyz.dir/cyanomethane_1101.chk
%nproc=8
%mem=16000MB
#p B2PLYPD3/Def2QZVP 

cyanomethane

0 1
C  -6.603801  -1.108213   1.164225
C  -5.198192  -0.795264   0.931300
N  -4.091559  -0.536426   0.689697
H  -6.742598  -1.243371   2.219445
H  -6.848872  -2.074658   0.633639
H  -7.265656  -0.301704   0.765630

