%chk=/home/boittier/MDCM/nms_sampling/cyanomethane_geom.xyz.dir/cyanomethane_2068.chk
%nproc=8
%mem=16000MB
#p B2PLYPD3/Def2QZVP 

cyanomethane

0 1
C  -6.610664  -1.103441   1.159769
C  -5.197282  -0.832226   0.903463
N  -4.090645  -0.516550   0.704238
H  -6.714581  -1.215364   2.244248
H  -6.865765  -1.994151   0.706846
H  -7.217721  -0.317633   0.847384

