%chk=/home/boittier/MDCM/nms_sampling/cyanomethane_geom.xyz.dir/cyanomethane_3048.chk
%nproc=8
%mem=16000MB
#p B2PLYPD3/Def2QZVP 

cyanomethane

0 1
C  -6.591626  -1.111288   1.165227
C  -5.214018  -0.815257   0.860019
N  -4.101234  -0.525040   0.729419
H  -6.771403  -1.180027   2.216727
H  -6.785645  -1.990861   0.800454
H  -7.118896  -0.366858   0.869686

