%chk=/home/boittier/MDCM/nms_sampling/cyanomethane_geom.xyz.dir/cyanomethane_2166.chk
%nproc=8
%mem=16000MB
#p B2PLYPD3/Def2QZVP 

cyanomethane

0 1
C  -6.598171  -1.110575   1.176874
C  -5.198815  -0.807280   0.876140
N  -4.086742  -0.528382   0.717238
H  -6.781540  -1.231219   2.275445
H  -6.947040  -2.053811   0.663418
H  -7.254978  -0.293977   0.802447
