%chk=/home/boittier/MDCM/nms_sampling/cyanomethane_geom.xyz.dir/cyanomethane_380.chk
%nproc=8
%mem=16000MB
#p B2PLYPD3/Def2QZVP 

cyanomethane

0 1
C  -6.589248  -1.119274   1.160186
C  -5.202442  -0.784337   0.925926
N  -4.098030  -0.539607   0.691180
H  -6.724983  -1.223415   2.244939
H  -6.915055  -2.019107   0.661103
H  -7.251024  -0.335005   0.791919
