%chk=/home/boittier/MDCM/nms_sampling/cyanomethane_geom.xyz.dir/cyanomethane_3186.chk
%nproc=8
%mem=16000MB
#p B2PLYPD3/Def2QZVP 

cyanomethane

0 1
C  -6.594648  -1.096927   1.189883
C  -5.202719  -0.852182   0.890420
N  -4.104662  -0.501526   0.707535
H  -6.658565  -1.254493   2.217991
H  -6.977660  -2.010764   0.578486
H  -7.093420  -0.295703   0.772664

