%chk=/home/boittier/MDCM/nms_sampling/cyanomethane_geom.xyz.dir/cyanomethane_815.chk
%nproc=8
%mem=16000MB
#p B2PLYPD3/Def2QZVP 

cyanomethane

0 1
C  -6.594817  -1.108355   1.163584
C  -5.201610  -0.811766   0.910208
N  -4.090891  -0.528467   0.701373
H  -6.782227  -1.197762   2.246377
H  -6.863596  -2.041957   0.685631
H  -7.288119  -0.308261   0.783686
