%chk=/home/boittier/MDCM/nms_sampling/cyanomethane_geom.xyz.dir/cyanomethane_2345.chk
%nproc=8
%mem=16000MB
#p B2PLYPD3/Def2QZVP 

cyanomethane

0 1
C  -6.611138  -1.119430   1.181547
C  -5.201752  -0.757597   0.886732
N  -4.087530  -0.555917   0.710810
H  -6.713399  -1.236423   2.243239
H  -6.827257  -2.109078   0.651317
H  -7.240206  -0.334448   0.740724
