%chk=/home/boittier/MDCM/nms_sampling/cyanomethane_geom.xyz.dir/cyanomethane_698.chk
%nproc=8
%mem=16000MB
#p B2PLYPD3/Def2QZVP 

cyanomethane

0 1
C  -6.594267  -1.112553   1.160943
C  -5.202570  -0.791717   0.891866
N  -4.095020  -0.537500   0.712019
H  -6.802065  -1.227783   2.251369
H  -6.846836  -2.024002   0.717475
H  -7.221552  -0.360684   0.833160

