%chk=/home/boittier/MDCM/nms_sampling/cyanomethane_geom.xyz.dir/cyanomethane_3245.chk
%nproc=8
%mem=16000MB
#p B2PLYPD3/Def2QZVP 

cyanomethane

0 1
C  -6.596893  -1.104305   1.191880
C  -5.211130  -0.846623   0.920113
N  -4.096397  -0.504890   0.692967
H  -6.670270  -1.207865   2.148137
H  -6.935567  -2.084313   0.563763
H  -7.109124  -0.196702   0.697831
