%chk=/home/boittier/MDCM/nms_sampling/cyanomethane_geom.xyz.dir/cyanomethane_274.chk
%nproc=8
%mem=16000MB
#p B2PLYPD3/Def2QZVP 

cyanomethane

0 1
C  -6.602383  -1.110196   1.167228
C  -5.202329  -0.811718   0.901328
N  -4.091650  -0.526804   0.705253
H  -6.743067  -1.214998   2.210227
H  -6.861556  -2.015953   0.691759
H  -7.217514  -0.316116   0.816507

