%chk=/home/boittier/MDCM/nms_sampling/cyanomethane_geom.xyz.dir/cyanomethane_352.chk
%nproc=8
%mem=16000MB
#p B2PLYPD3/Def2QZVP 

cyanomethane

0 1
C  -6.599629  -1.112786   1.173682
C  -5.199904  -0.798186   0.901815
N  -4.089065  -0.532624   0.704041
H  -6.765333  -1.240692   2.220168
H  -6.920527  -2.042826   0.643997
H  -7.234621  -0.306450   0.790287
