%chk=/home/boittier/MDCM/nms_sampling/cyanomethane_geom.xyz.dir/cyanomethane_3415.chk
%nproc=8
%mem=16000MB
#p B2PLYPD3/Def2QZVP 

cyanomethane

0 1
C  -6.620135  -1.128901   1.152145
C  -5.196759  -0.810927   0.914861
N  -4.080517  -0.521619   0.700212
H  -6.772813  -1.193224   2.217492
H  -6.930666  -1.967471   0.714016
H  -7.125486  -0.239940   0.877631

