%chk=/home/boittier/MDCM/nms_sampling/cyanomethane_geom.xyz.dir/cyanomethane_1302.chk
%nproc=8
%mem=16000MB
#p B2PLYPD3/Def2QZVP 

cyanomethane

0 1
C  -6.581516  -1.106881   1.146875
C  -5.208102  -0.792577   0.945149
N  -4.099149  -0.535919   0.684629
H  -6.782011  -1.278101   2.253153
H  -6.885651  -2.064055   0.651903
H  -7.232676  -0.323354   0.819961

