%chk=/home/boittier/MDCM/nms_sampling/cyanomethane_geom.xyz.dir/cyanomethane_1285.chk
%nproc=8
%mem=16000MB
#p B2PLYPD3/Def2QZVP 

cyanomethane

0 1
C  -6.609007  -1.107231   1.155500
C  -5.197707  -0.807469   0.923522
N  -4.086227  -0.525925   0.696380
H  -6.806459  -1.256466   2.219199
H  -6.917639  -2.066432   0.679418
H  -7.148945  -0.307175   0.822832
