%chk=/home/boittier/MDCM/nms_sampling/cyanomethane_geom.xyz.dir/cyanomethane_870.chk
%nproc=8
%mem=16000MB
#p B2PLYPD3/Def2QZVP 

cyanomethane

0 1
C  -6.587370  -1.109021   1.171055
C  -5.202801  -0.810804   0.902029
N  -4.099230  -0.526835   0.703573
H  -6.740402  -1.226846   2.217058
H  -6.910225  -2.013846   0.666614
H  -7.241246  -0.327365   0.804189

