%chk=/home/boittier/MDCM/nms_sampling/cyanomethane_geom.xyz.dir/cyanomethane_600.chk
%nproc=8
%mem=16000MB
#p B2PLYPD3/Def2QZVP 

cyanomethane

0 1
C  -6.606835  -1.110954   1.166869
C  -5.199139  -0.793095   0.927927
N  -4.090701  -0.537881   0.689960
H  -6.704389  -1.220148   2.202775
H  -6.843525  -2.040831   0.652296
H  -7.273672  -0.336443   0.761376

