%chk=/home/boittier/MDCM/nms_sampling/cyanomethane_geom.xyz.dir/cyanomethane_2430.chk
%nproc=8
%mem=16000MB
#p B2PLYPD3/Def2QZVP 

cyanomethane

0 1
C  -6.597011  -1.135335   1.156365
C  -5.205218  -0.721776   0.909892
N  -4.103149  -0.577849   0.702989
H  -6.763853  -1.200040   2.206481
H  -6.643096  -2.014518   0.735008
H  -7.285512  -0.401781   0.801488

