%chk=/home/boittier/MDCM/nms_sampling/cyanomethane_geom.xyz.dir/cyanomethane_1223.chk
%nproc=8
%mem=16000MB
#p B2PLYPD3/Def2QZVP 

cyanomethane

0 1
C  -6.586008  -1.113576   1.154483
C  -5.207766  -0.806608   0.930528
N  -4.098351  -0.525740   0.691871
H  -6.779142  -1.253302   2.243391
H  -6.922591  -1.999107   0.640105
H  -7.159679  -0.310399   0.829027
