%chk=/home/boittier/MDCM/nms_sampling/cyanomethane_geom.xyz.dir/cyanomethane_544.chk
%nproc=8
%mem=16000MB
#p B2PLYPD3/Def2QZVP 

cyanomethane

0 1
C  -6.598477  -1.111616   1.155735
C  -5.202259  -0.791297   0.928567
N  -4.095723  -0.536676   0.691992
H  -6.741271  -1.253088   2.245391
H  -6.860502  -2.046662   0.658274
H  -7.212257  -0.322496   0.809492
