%chk=/home/boittier/MDCM/nms_sampling/cyanomethane_geom.xyz.dir/cyanomethane_1312.chk
%nproc=8
%mem=16000MB
#p B2PLYPD3/Def2QZVP 

cyanomethane

0 1
C  -6.598941  -1.117216   1.166839
C  -5.202701  -0.822547   0.917858
N  -4.099354  -0.516866   0.699027
H  -6.772059  -1.164790   2.228258
H  -6.893096  -2.043860   0.661146
H  -7.086970  -0.260070   0.744795
