%chk=/home/boittier/MDCM/nms_sampling/cyanomethane_geom.xyz.dir/cyanomethane_1728.chk
%nproc=8
%mem=16000MB
#p B2PLYPD3/Def2QZVP 

cyanomethane

0 1
C  -6.596575  -1.110293   1.160980
C  -5.205403  -0.794415   0.944287
N  -4.094394  -0.538144   0.679613
H  -6.642580  -1.230207   2.200365
H  -6.847702  -2.014223   0.646754
H  -7.328251  -0.336076   0.783731
