%chk=/home/boittier/MDCM/nms_sampling/cyanomethane_geom.xyz.dir/cyanomethane_789.chk
%nproc=8
%mem=16000MB
#p B2PLYPD3/Def2QZVP 

cyanomethane

0 1
C  -6.587512  -1.104847   1.163506
C  -5.205112  -0.798145   0.921779
N  -4.096850  -0.534706   0.694085
H  -6.742101  -1.265053   2.230472
H  -6.881095  -2.065024   0.645306
H  -7.272517  -0.319565   0.798714

