%chk=/home/boittier/MDCM/nms_sampling/cyanomethane_geom.xyz.dir/cyanomethane_2015.chk
%nproc=8
%mem=16000MB
#p B2PLYPD3/Def2QZVP 

cyanomethane

0 1
C  -6.606329  -1.113228   1.160090
C  -5.200960  -0.793232   0.885633
N  -4.086324  -0.535946   0.717712
H  -6.855421  -1.270298   2.294611
H  -6.823004  -2.015251   0.661778
H  -7.188055  -0.315750   0.860513

