%chk=/home/boittier/MDCM/nms_sampling/cyanomethane_geom.xyz.dir/cyanomethane_217.chk
%nproc=8
%mem=16000MB
#p B2PLYPD3/Def2QZVP 

cyanomethane

0 1
C  -6.606562  -1.115181   1.160305
C  -5.200552  -0.793544   0.925271
N  -4.088137  -0.535701   0.694050
H  -6.767660  -1.228851   2.234260
H  -6.852624  -2.033930   0.650007
H  -7.223160  -0.307363   0.789723
