%chk=/home/boittier/MDCM/nms_sampling/cyanomethane_geom.xyz.dir/cyanomethane_29.chk
%nproc=8
%mem=16000MB
#p B2PLYPD3/Def2QZVP 

cyanomethane

0 1
C  -6.598786  -1.099705   1.166856
C  -5.197982  -0.814420   0.913300
N  -4.091744  -0.525869   0.698948
H  -6.763458  -1.262677   2.233745
H  -6.901047  -2.061628   0.642921
H  -7.252801  -0.317686   0.797601

