%chk=/home/boittier/MDCM/nms_sampling/cyanomethane_geom.xyz.dir/cyanomethane_362.chk
%nproc=8
%mem=16000MB
#p B2PLYPD3/Def2QZVP 

cyanomethane

0 1
C  -6.592178  -1.112675   1.169868
C  -5.203235  -0.775245   0.904277
N  -4.094103  -0.547976   0.703843
H  -6.775044  -1.248475   2.253672
H  -6.829331  -2.092750   0.646090
H  -7.296129  -0.313474   0.769698

