%chk=/home/boittier/MDCM/nms_sampling/cyanomethane_geom.xyz.dir/cyanomethane_1726.chk
%nproc=8
%mem=16000MB
#p B2PLYPD3/Def2QZVP 

cyanomethane

0 1
C  -6.593975  -1.111501   1.186271
C  -5.207359  -0.788154   0.865720
N  -4.096953  -0.539116   0.722781
H  -6.749799  -1.261976   2.233022
H  -6.844834  -2.053674   0.640404
H  -7.193574  -0.327372   0.796012

