%chk=/home/boittier/MDCM/nms_sampling/cyanomethane_geom.xyz.dir/cyanomethane_2553.chk
%nproc=8
%mem=16000MB
#p B2PLYPD3/Def2QZVP 

cyanomethane

0 1
C  -6.597274  -1.119471   1.165768
C  -5.209002  -0.784668   0.859513
N  -4.093640  -0.544685   0.731095
H  -6.839068  -1.147492   2.267055
H  -6.707053  -2.015999   0.786875
H  -7.230680  -0.378115   0.807978
