%chk=/home/boittier/MDCM/nms_sampling/cyanomethane_geom.xyz.dir/cyanomethane_823.chk
%nproc=8
%mem=16000MB
#p B2PLYPD3/Def2QZVP 

cyanomethane

0 1
C  -6.593822  -1.121350   1.169454
C  -5.201491  -0.781838   0.918323
N  -4.092689  -0.542148   0.694482
H  -6.737402  -1.195948   2.204586
H  -6.898988  -2.032714   0.668762
H  -7.284930  -0.325228   0.760107

