%chk=/home/boittier/MDCM/nms_sampling/cyanomethane_geom.xyz.dir/cyanomethane_2993.chk
%nproc=8
%mem=16000MB
#p B2PLYPD3/Def2QZVP 

cyanomethane

0 1
C  -6.606072  -1.124560   1.161836
C  -5.197850  -0.796669   0.913653
N  -4.078101  -0.527272   0.699948
H  -6.835475  -1.270785   2.294382
H  -7.035673  -1.955925   0.583859
H  -7.151451  -0.299884   0.836471

