%chk=/home/boittier/MDCM/nms_sampling/cyanomethane_geom.xyz.dir/cyanomethane_81.chk
%nproc=8
%mem=16000MB
#p B2PLYPD3/Def2QZVP 

cyanomethane

0 1
C  -6.595259  -1.126763   1.166106
C  -5.199885  -0.764655   0.909746
N  -4.093628  -0.550261   0.701644
H  -6.798859  -1.220907   2.239452
H  -6.866335  -2.052525   0.658682
H  -7.244662  -0.306750   0.777945

