%chk=/home/boittier/MDCM/nms_sampling/cyanomethane_geom.xyz.dir/cyanomethane_714.chk
%nproc=8
%mem=16000MB
#p B2PLYPD3/Def2QZVP 

cyanomethane

0 1
C  -6.589158  -1.113230   1.173528
C  -5.202826  -0.777617   0.895447
N  -4.098685  -0.545994   0.707967
H  -6.767931  -1.235149   2.253619
H  -6.842756  -2.070870   0.654492
H  -7.267605  -0.344878   0.763023
