%chk=/home/boittier/MDCM/nms_sampling/cyanomethane_geom.xyz.dir/cyanomethane_2245.chk
%nproc=8
%mem=16000MB
#p B2PLYPD3/Def2QZVP 

cyanomethane

0 1
C  -6.599417  -1.105040   1.173006
C  -5.206426  -0.805446   0.873492
N  -4.094686  -0.534702   0.720078
H  -6.736299  -1.212735   2.266949
H  -6.753629  -2.046395   0.701970
H  -7.277370  -0.329732   0.804920
