%chk=/home/boittier/MDCM/nms_sampling/cyanomethane_geom.xyz.dir/cyanomethane_662.chk
%nproc=8
%mem=16000MB
#p B2PLYPD3/Def2QZVP 

cyanomethane

0 1
C  -6.596774  -1.112450   1.165629
C  -5.202200  -0.809284   0.905928
N  -4.092553  -0.525990   0.703607
H  -6.775856  -1.231519   2.250168
H  -6.911044  -2.020602   0.653060
H  -7.192431  -0.301813   0.808211
