%chk=/home/boittier/MDCM/nms_sampling/cyanomethane_geom.xyz.dir/cyanomethane_1658.chk
%nproc=8
%mem=16000MB
#p B2PLYPD3/Def2QZVP 

cyanomethane

0 1
C  -6.603030  -1.101479   1.168882
C  -5.195844  -0.816747   0.892853
N  -4.090745  -0.525544   0.708398
H  -6.739919  -1.227126   2.239776
H  -6.896879  -2.021977   0.698074
H  -7.269361  -0.363030   0.814113

