%chk=/home/boittier/MDCM/nms_sampling/cyanomethane_geom.xyz.dir/cyanomethane_3006.chk
%nproc=8
%mem=16000MB
#p B2PLYPD3/Def2QZVP 

cyanomethane

0 1
C  -6.582556  -1.126888   1.165383
C  -5.206901  -0.806438   0.863540
N  -4.097580  -0.527872   0.730049
H  -6.912959  -1.079228   2.295300
H  -6.858518  -1.990903   0.788900
H  -7.153810  -0.360197   0.763541
