%chk=/home/boittier/MDCM/nms_sampling/cyanomethane_geom.xyz.dir/cyanomethane_1738.chk
%nproc=8
%mem=16000MB
#p B2PLYPD3/Def2QZVP 

cyanomethane

0 1
C  -6.583151  -1.106577   1.175015
C  -5.207084  -0.812692   0.901470
N  -4.096765  -0.525145   0.704601
H  -6.773945  -1.246496   2.224649
H  -6.927410  -2.040697   0.630095
H  -7.224162  -0.305975   0.786434
