%chk=/home/boittier/MDCM/nms_sampling/cyanomethane_geom.xyz.dir/cyanomethane_2130.chk
%nproc=8
%mem=16000MB
#p B2PLYPD3/Def2QZVP 

cyanomethane

0 1
C  -6.588656  -1.106356   1.173376
C  -5.199207  -0.817975   0.916977
N  -4.097081  -0.521963   0.695228
H  -6.738848  -1.255977   2.221670
H  -6.961506  -2.043774   0.603216
H  -7.249092  -0.270218   0.786090

