%chk=/home/boittier/MDCM/nms_sampling/cyanomethane_geom.xyz.dir/cyanomethane_2330.chk
%nproc=8
%mem=16000MB
#p B2PLYPD3/Def2QZVP 

cyanomethane

0 1
C  -6.613264  -1.124430   1.174944
C  -5.198614  -0.756756   0.884241
N  -4.086244  -0.556618   0.709944
H  -6.661075  -1.221200   2.242986
H  -6.857068  -2.055960   0.702506
H  -7.292251  -0.349553   0.796252

