%chk=/home/boittier/MDCM/nms_sampling/cyanomethane_geom.xyz.dir/cyanomethane_2950.chk
%nproc=8
%mem=16000MB
#p B2PLYPD3/Def2QZVP 

cyanomethane

0 1
C  -6.596013  -1.128803   1.175007
C  -5.208101  -0.794521   0.853333
N  -4.099325  -0.529205   0.734542
H  -6.852220  -1.217448   2.210339
H  -6.872447  -2.033534   0.720584
H  -6.993152  -0.253462   0.861653
