%chk=/home/boittier/MDCM/nms_sampling/cyanomethane_geom.xyz.dir/cyanomethane_2615.chk
%nproc=8
%mem=16000MB
#p B2PLYPD3/Def2QZVP 

cyanomethane

0 1
C  -6.617019  -1.106298   1.185778
C  -5.191400  -0.771101   0.845783
N  -4.085717  -0.549520   0.731566
H  -6.739246  -1.293364   2.283435
H  -6.871326  -2.074440   0.672603
H  -7.249585  -0.403144   0.817540
