%chk=/home/boittier/MDCM/nms_sampling/cyanomethane_geom.xyz.dir/cyanomethane_2226.chk
%nproc=8
%mem=16000MB
#p B2PLYPD3/Def2QZVP 

cyanomethane

0 1
C  -6.582619  -1.120652   1.171485
C  -5.203250  -0.758576   0.902587
N  -4.102070  -0.555308   0.700962
H  -6.704591  -1.237539   2.214346
H  -6.888734  -2.031342   0.682566
H  -7.310395  -0.388677   0.791094

