%chk=/home/boittier/MDCM/nms_sampling/cyanomethane_geom.xyz.dir/cyanomethane_1594.chk
%nproc=8
%mem=16000MB
#p B2PLYPD3/Def2QZVP 

cyanomethane

0 1
C  -6.608110  -1.097189   1.166366
C  -5.202915  -0.816565   0.905176
N  -4.089082  -0.525248   0.702497
H  -6.696821  -1.291576   2.265402
H  -6.859242  -2.052594   0.630191
H  -7.226794  -0.310010   0.830447

