%chk=/home/boittier/MDCM/nms_sampling/cyanomethane_geom.xyz.dir/cyanomethane_1205.chk
%nproc=8
%mem=16000MB
#p B2PLYPD3/Def2QZVP 

cyanomethane

0 1
C  -6.589696  -1.108326   1.178959
C  -5.202233  -0.827942   0.902842
N  -4.101596  -0.516811   0.701304
H  -6.687938  -1.203435   2.206035
H  -6.938996  -1.981069   0.640423
H  -7.211611  -0.326536   0.775944
