%chk=/home/boittier/MDCM/nms_sampling/cyanomethane_geom.xyz.dir/cyanomethane_3469.chk
%nproc=8
%mem=16000MB
#p B2PLYPD3/Def2QZVP 

cyanomethane

0 1
C  -6.585954  -1.113377   1.155482
C  -5.203730  -0.738748   0.929227
N  -4.108190  -0.566260   0.694098
H  -6.809116  -1.348928   2.182893
H  -6.737919  -2.096295   0.637882
H  -7.223987  -0.357263   0.840384
