%chk=/home/boittier/MDCM/nms_sampling/cyanomethane_geom.xyz.dir/cyanomethane_178.chk
%nproc=8
%mem=16000MB
#p B2PLYPD3/Def2QZVP 

cyanomethane

0 1
C  -6.597429  -1.114707   1.167916
C  -5.198735  -0.805711   0.902891
N  -4.092663  -0.528478   0.705712
H  -6.803030  -1.198621   2.265985
H  -6.901531  -2.034167   0.659307
H  -7.207986  -0.309171   0.768511

