%chk=/home/boittier/MDCM/nms_sampling/cyanomethane_geom.xyz.dir/cyanomethane_2501.chk
%nproc=8
%mem=16000MB
#p B2PLYPD3/Def2QZVP 

cyanomethane

0 1
C  -6.587387  -1.103119   1.158897
C  -5.202988  -0.866919   0.918061
N  -4.086790  -0.499133   0.701671
H  -6.920897  -1.090885   2.189712
H  -6.886229  -1.979544   0.746088
H  -7.258327  -0.301715   0.758120
