%chk=/home/boittier/MDCM/nms_sampling/cyanomethane_geom.xyz.dir/cyanomethane_1623.chk
%nproc=8
%mem=16000MB
#p B2PLYPD3/Def2QZVP 

cyanomethane

0 1
C  -6.613035  -1.118207   1.176559
C  -5.197151  -0.795347   0.863799
N  -4.088320  -0.536445   0.724288
H  -6.741795  -1.175360   2.275716
H  -6.831469  -2.045916   0.720916
H  -7.229437  -0.312990   0.790141

