%chk=/home/boittier/MDCM/nms_sampling/cyanomethane_geom.xyz.dir/cyanomethane_941.chk
%nproc=8
%mem=16000MB
#p B2PLYPD3/Def2QZVP 

cyanomethane

0 1
C  -6.599785  -1.105626   1.167387
C  -5.200117  -0.794731   0.888289
N  -4.090579  -0.537237   0.712803
H  -6.787050  -1.263516   2.271227
H  -6.848846  -2.047712   0.669039
H  -7.260143  -0.347424   0.822042

