%chk=/home/boittier/MDCM/nms_sampling/cyanomethane_geom.xyz.dir/cyanomethane_2937.chk
%nproc=8
%mem=16000MB
#p B2PLYPD3/Def2QZVP 

cyanomethane

0 1
C  -6.594267  -1.109782   1.203812
C  -5.206561  -0.805969   0.824274
N  -4.108436  -0.527718   0.742500
H  -6.686830  -1.289910   2.234661
H  -6.856543  -2.018246   0.613630
H  -7.089107  -0.305177   0.835500

