%chk=/home/boittier/MDCM/nms_sampling/cyanomethane_geom.xyz.dir/cyanomethane_930.chk
%nproc=8
%mem=16000MB
#p B2PLYPD3/Def2QZVP 

cyanomethane

0 1
C  -6.595232  -1.118195   1.171660
C  -5.202421  -0.772661   0.897866
N  -4.098351  -0.546730   0.705869
H  -6.726760  -1.264674   2.218322
H  -6.856381  -2.062066   0.656352
H  -7.229034  -0.306581   0.814457
