%chk=/home/boittier/MDCM/nms_sampling/cyanomethane_geom.xyz.dir/cyanomethane_2958.chk
%nproc=8
%mem=16000MB
#p B2PLYPD3/Def2QZVP 

cyanomethane

0 1
C  -6.626104  -1.128995   1.155077
C  -5.192074  -0.741182   0.892762
N  -4.086511  -0.567400   0.711088
H  -6.736508  -1.193166   2.284811
H  -6.706396  -2.072557   0.761529
H  -7.288924  -0.350903   0.812191
