%chk=/home/boittier/MDCM/nms_sampling/cyanomethane_geom.xyz.dir/cyanomethane_2395.chk
%nproc=8
%mem=16000MB
#p B2PLYPD3/Def2QZVP 

cyanomethane

0 1
C  -6.598285  -1.093973   1.166799
C  -5.204779  -0.825353   0.924180
N  -4.092963  -0.520075   0.693040
H  -6.725736  -1.287984   2.212435
H  -6.878811  -2.031606   0.610408
H  -7.220693  -0.331108   0.806827

