%chk=/home/boittier/MDCM/nms_sampling/cyanomethane_geom.xyz.dir/cyanomethane_3524.chk
%nproc=8
%mem=16000MB
#p B2PLYPD3/Def2QZVP 

cyanomethane

0 1
C  -6.602783  -1.125409   1.142731
C  -5.199603  -0.710163   0.907559
N  -4.093710  -0.580664   0.704162
H  -6.792429  -1.312815   2.198744
H  -6.775590  -2.075602   0.785384
H  -7.250113  -0.431131   0.913759

