%chk=/home/boittier/MDCM/nms_sampling/cyanomethane_geom.xyz.dir/cyanomethane_2689.chk
%nproc=8
%mem=16000MB
#p B2PLYPD3/Def2QZVP 

cyanomethane

0 1
C  -6.583986  -1.118242   1.163973
C  -5.207610  -0.786788   0.917756
N  -4.093496  -0.539458   0.691148
H  -6.641495  -1.206051   2.264109
H  -6.977990  -2.018782   0.686255
H  -7.335811  -0.346418   0.792540

