%chk=/home/boittier/MDCM/nms_sampling/cyanomethane_geom.xyz.dir/cyanomethane_2894.chk
%nproc=8
%mem=16000MB
#p B2PLYPD3/Def2QZVP 

cyanomethane

0 1
C  -6.591430  -1.128548   1.159171
C  -5.204765  -0.762160   0.946456
N  -4.107339  -0.545411   0.681539
H  -6.702617  -1.249137   2.223501
H  -6.935255  -2.042029   0.616299
H  -7.068205  -0.340820   0.760453
