%chk=/home/boittier/MDCM/nms_sampling/cyanomethane_geom.xyz.dir/cyanomethane_2055.chk
%nproc=8
%mem=16000MB
#p B2PLYPD3/Def2QZVP 

cyanomethane

0 1
C  -6.601543  -1.131201   1.167183
C  -5.197729  -0.757805   0.902137
N  -4.093518  -0.555079   0.704558
H  -6.764703  -1.193665   2.207869
H  -6.829681  -2.037059   0.705599
H  -7.266335  -0.320159   0.790207

