%chk=/home/boittier/MDCM/nms_sampling/cyanomethane_geom.xyz.dir/cyanomethane_1723.chk
%nproc=8
%mem=16000MB
#p B2PLYPD3/Def2QZVP 

cyanomethane

0 1
C  -6.599833  -1.125354   1.170805
C  -5.201155  -0.798453   0.894555
N  -4.088154  -0.532145   0.709471
H  -6.807564  -1.146160   2.202342
H  -6.891919  -2.001502   0.718897
H  -7.216276  -0.313537   0.775913

