%chk=/home/boittier/MDCM/nms_sampling/cyanomethane_geom.xyz.dir/cyanomethane_3565.chk
%nproc=8
%mem=16000MB
#p B2PLYPD3/Def2QZVP 

cyanomethane

0 1
C  -6.624328  -1.114649   1.196676
C  -5.194438  -0.778862   0.843160
N  -4.079276  -0.542687   0.731505
H  -6.707630  -1.333541   2.258274
H  -6.903558  -2.031252   0.579601
H  -7.212634  -0.295705   0.850550

