%chk=/home/boittier/MDCM/nms_sampling/cyanomethane_geom.xyz.dir/cyanomethane_156.chk
%nproc=8
%mem=16000MB
#p B2PLYPD3/Def2QZVP 

cyanomethane

0 1
C  -6.600546  -1.111008   1.167070
C  -5.202492  -0.782547   0.903293
N  -4.091701  -0.544326   0.703120
H  -6.725610  -1.252154   2.212378
H  -6.824481  -2.048650   0.683432
H  -7.291197  -0.337884   0.818835
