%chk=/home/boittier/MDCM/nms_sampling/cyanomethane_geom.xyz.dir/cyanomethane_2012.chk
%nproc=8
%mem=16000MB
#p B2PLYPD3/Def2QZVP 

cyanomethane

0 1
C  -6.596699  -1.104042   1.163700
C  -5.205822  -0.793432   0.935018
N  -4.095357  -0.538858   0.685607
H  -6.667263  -1.286762   2.223679
H  -6.826349  -2.040458   0.605836
H  -7.304786  -0.323178   0.800434

