%chk=/home/boittier/MDCM/nms_sampling/cyanomethane_geom.xyz.dir/cyanomethane_1962.chk
%nproc=8
%mem=16000MB
#p B2PLYPD3/Def2QZVP 

cyanomethane

0 1
C  -6.587866  -1.124332   1.166368
C  -5.203097  -0.760392   0.919554
N  -4.101000  -0.551082   0.696265
H  -6.781935  -1.260218   2.205689
H  -6.876676  -2.049586   0.634255
H  -7.198153  -0.326417   0.787801
