%chk=/home/boittier/MDCM/nms_sampling/cyanomethane_geom.xyz.dir/cyanomethane_3269.chk
%nproc=8
%mem=16000MB
#p B2PLYPD3/Def2QZVP 

cyanomethane

0 1
C  -6.581195  -1.115661   1.141814
C  -5.210311  -0.839363   0.931649
N  -4.100492  -0.507468   0.689585
H  -6.709618  -1.149548   2.267650
H  -6.996070  -1.922280   0.754821
H  -7.154100  -0.348625   0.853211
