%chk=/home/boittier/MDCM/nms_sampling/cyanomethane_geom.xyz.dir/cyanomethane_2450.chk
%nproc=8
%mem=16000MB
#p B2PLYPD3/Def2QZVP 

cyanomethane

0 1
C  -6.605376  -1.102019   1.180423
C  -5.193328  -0.853578   0.920149
N  -4.089902  -0.501121   0.695248
H  -6.777888  -1.170761   2.223571
H  -6.996915  -2.036328   0.598554
H  -7.146942  -0.287096   0.688360
