%chk=/home/boittier/MDCM/nms_sampling/cyanomethane_geom.xyz.dir/cyanomethane_305.chk
%nproc=8
%mem=16000MB
#p B2PLYPD3/Def2QZVP 

cyanomethane

0 1
C  -6.591005  -1.108416   1.170189
C  -5.203513  -0.811799   0.904008
N  -4.094199  -0.525474   0.702454
H  -6.736645  -1.238762   2.245816
H  -6.939620  -2.039771   0.649196
H  -7.233360  -0.301142   0.800025

