%chk=/home/boittier/MDCM/nms_sampling/cyanomethane_geom.xyz.dir/cyanomethane_1043.chk
%nproc=8
%mem=16000MB
#p B2PLYPD3/Def2QZVP 

cyanomethane

0 1
C  -6.602406  -1.119617   1.162259
C  -5.198938  -0.783234   0.933424
N  -4.092514  -0.540188   0.689031
H  -6.759735  -1.208653   2.220603
H  -6.875090  -2.042838   0.648893
H  -7.217224  -0.325457   0.751702

