%chk=/home/boittier/MDCM/nms_sampling/cyanomethane_geom.xyz.dir/cyanomethane_1157.chk
%nproc=8
%mem=16000MB
#p B2PLYPD3/Def2QZVP 

cyanomethane

0 1
C  -6.605725  -1.111442   1.160898
C  -5.200381  -0.784727   0.920662
N  -4.089375  -0.541428   0.694491
H  -6.723298  -1.241925   2.223038
H  -6.859423  -2.047471   0.680108
H  -7.255003  -0.353135   0.800063

