%chk=/home/boittier/MDCM/nms_sampling/cyanomethane_geom.xyz.dir/cyanomethane_316.chk
%nproc=8
%mem=16000MB
#p B2PLYPD3/Def2QZVP 

cyanomethane

0 1
C  -6.599472  -1.106492   1.168936
C  -5.198322  -0.810140   0.909857
N  -4.091786  -0.529454   0.700720
H  -6.766038  -1.212961   2.230343
H  -6.856475  -2.021800   0.658448
H  -7.283183  -0.336992   0.774457
