%chk=/home/boittier/MDCM/nms_sampling/cyanomethane_geom.xyz.dir/cyanomethane_673.chk
%nproc=8
%mem=16000MB
#p B2PLYPD3/Def2QZVP 

cyanomethane

0 1
C  -6.604603  -1.110892   1.166661
C  -5.198504  -0.774809   0.904748
N  -4.092195  -0.548306   0.703124
H  -6.742057  -1.254215   2.235018
H  -6.814239  -2.068527   0.672947
H  -7.278083  -0.353719   0.795000

