%chk=/home/boittier/MDCM/nms_sampling/cyanomethane_geom.xyz.dir/cyanomethane_2767.chk
%nproc=8
%mem=16000MB
#p B2PLYPD3/Def2QZVP 

cyanomethane

0 1
C  -6.569730  -1.092703   1.180084
C  -5.203937  -0.824078   0.868391
N  -4.110736  -0.528198   0.722421
H  -6.790863  -1.164817   2.265257
H  -6.773320  -2.054983   0.721209
H  -7.369051  -0.396035   0.735671
