%chk=/home/boittier/MDCM/nms_sampling/cyanomethane_geom.xyz.dir/cyanomethane_1201.chk
%nproc=8
%mem=16000MB
#p B2PLYPD3/Def2QZVP 

cyanomethane

0 1
C  -6.581670  -1.117769   1.152704
C  -5.202370  -0.773297   0.945345
N  -4.101227  -0.543930   0.681898
H  -6.749137  -1.272355   2.237565
H  -6.949397  -2.054426   0.639840
H  -7.239116  -0.325521   0.806288

