%chk=/home/boittier/MDCM/nms_sampling/cyanomethane_geom.xyz.dir/cyanomethane_482.chk
%nproc=8
%mem=16000MB
#p B2PLYPD3/Def2QZVP 

cyanomethane

0 1
C  -6.593405  -1.116345   1.174041
C  -5.205138  -0.776071   0.903042
N  -4.096749  -0.545707   0.703485
H  -6.737777  -1.227418   2.224037
H  -6.849377  -2.094315   0.659663
H  -7.237665  -0.312026   0.755164

