%chk=/home/boittier/MDCM/nms_sampling/cyanomethane_geom.xyz.dir/cyanomethane_1559.chk
%nproc=8
%mem=16000MB
#p B2PLYPD3/Def2QZVP 

cyanomethane

0 1
C  -6.589988  -1.102102   1.157701
C  -5.202553  -0.786345   0.938371
N  -4.101511  -0.540742   0.685849
H  -6.724946  -1.295267   2.201886
H  -6.858168  -2.094188   0.649269
H  -7.247799  -0.340250   0.803475

