%chk=/home/boittier/MDCM/nms_sampling/cyanomethane_geom.xyz.dir/cyanomethane_3239.chk
%nproc=8
%mem=16000MB
#p B2PLYPD3/Def2QZVP 

cyanomethane

0 1
C  -6.599995  -1.137884   1.145379
C  -5.198288  -0.753280   0.957474
N  -4.083749  -0.552041   0.673365
H  -6.729021  -1.165467   2.222069
H  -7.024391  -1.946469   0.720447
H  -7.258910  -0.438781   0.779084
