%chk=/home/boittier/MDCM/nms_sampling/cyanomethane_geom.xyz.dir/cyanomethane_1508.chk
%nproc=8
%mem=16000MB
#p B2PLYPD3/Def2QZVP 

cyanomethane

0 1
C  -6.602185  -1.108815   1.167544
C  -5.206037  -0.771308   0.916999
N  -4.094086  -0.549847   0.696787
H  -6.717134  -1.289244   2.209742
H  -6.783530  -2.066445   0.631586
H  -7.245806  -0.353890   0.794448
