%chk=/home/boittier/MDCM/nms_sampling/cyanomethane_geom.xyz.dir/cyanomethane_2368.chk
%nproc=8
%mem=16000MB
#p B2PLYPD3/Def2QZVP 

cyanomethane

0 1
C  -6.591573  -1.116857   1.172344
C  -5.205718  -0.806091   0.877882
N  -4.096442  -0.528773   0.715380
H  -6.710598  -1.200569   2.263067
H  -6.909304  -1.991792   0.700533
H  -7.224886  -0.324813   0.826619
