%chk=/home/boittier/MDCM/nms_sampling/cyanomethane_geom.xyz.dir/cyanomethane_3206.chk
%nproc=8
%mem=16000MB
#p B2PLYPD3/Def2QZVP 

cyanomethane

0 1
C  -6.601840  -1.114823   1.164818
C  -5.199273  -0.786454   0.867852
N  -4.079482  -0.542498   0.732330
H  -7.059626  -1.213610   2.261246
H  -6.742349  -2.056719   0.706681
H  -7.234523  -0.318601   0.808079

