%chk=/home/boittier/MDCM/nms_sampling/cyanomethane_geom.xyz.dir/cyanomethane_820.chk
%nproc=8
%mem=16000MB
#p B2PLYPD3/Def2QZVP 

cyanomethane

0 1
C  -6.589424  -1.101253   1.165530
C  -5.201628  -0.816401   0.908248
N  -4.097638  -0.524990   0.701381
H  -6.751124  -1.253284   2.244374
H  -6.896442  -2.047321   0.658025
H  -7.256223  -0.315357   0.812209

