%chk=/home/boittier/MDCM/nms_sampling/cyanomethane_geom.xyz.dir/cyanomethane_323.chk
%nproc=8
%mem=16000MB
#p B2PLYPD3/Def2QZVP 

cyanomethane

0 1
C  -6.597581  -1.116698   1.178458
C  -5.202229  -0.793284   0.883571
N  -4.096027  -0.535735   0.714613
H  -6.766402  -1.221387   2.233060
H  -6.856026  -2.069103   0.658224
H  -7.196723  -0.277600   0.779970
