%chk=/home/boittier/MDCM/nms_sampling/cyanomethane_geom.xyz.dir/cyanomethane_1907.chk
%nproc=8
%mem=16000MB
#p B2PLYPD3/Def2QZVP 

cyanomethane

0 1
C  -6.601604  -1.097390   1.164842
C  -5.198476  -0.834766   0.920640
N  -4.085982  -0.517158   0.695959
H  -6.788049  -1.189289   2.204444
H  -6.878143  -2.049371   0.690417
H  -7.292564  -0.320704   0.763562

