%chk=/home/boittier/MDCM/nms_sampling/cyanomethane_geom.xyz.dir/cyanomethane_3070.chk
%nproc=8
%mem=16000MB
#p B2PLYPD3/Def2QZVP 

cyanomethane

0 1
C  -6.613935  -1.098307   1.173200
C  -5.201232  -0.847872   0.912015
N  -4.083201  -0.514129   0.699660
H  -6.718359  -1.163605   2.199582
H  -6.756302  -2.047937   0.667486
H  -7.341000  -0.231557   0.755612

