%chk=/home/boittier/MDCM/nms_sampling/cyanomethane_geom.xyz.dir/cyanomethane_1991.chk
%nproc=8
%mem=16000MB
#p B2PLYPD3/Def2QZVP 

cyanomethane

0 1
C  -6.594907  -1.112889   1.161782
C  -5.199009  -0.797581   0.926725
N  -4.091314  -0.534412   0.688760
H  -6.693792  -1.215156   2.226298
H  -6.942258  -2.020317   0.679886
H  -7.321689  -0.336087   0.795903
