%chk=/home/boittier/MDCM/nms_sampling/cyanomethane_geom.xyz.dir/cyanomethane_2153.chk
%nproc=8
%mem=16000MB
#p B2PLYPD3/Def2QZVP 

cyanomethane

0 1
C  -6.610382  -1.126383   1.168630
C  -5.200236  -0.793722   0.875280
N  -4.085606  -0.534733   0.720224
H  -6.791295  -1.154073   2.273442
H  -6.859959  -2.018320   0.731406
H  -7.184218  -0.304640   0.797356
