%chk=/home/boittier/MDCM/nms_sampling/cyanomethane_geom.xyz.dir/cyanomethane_1142.chk
%nproc=8
%mem=16000MB
#p B2PLYPD3/Def2QZVP 

cyanomethane

0 1
C  -6.606990  -1.111490   1.169550
C  -5.200303  -0.796629   0.913355
N  -4.089365  -0.534553   0.696956
H  -6.698443  -1.237264   2.206190
H  -6.881699  -2.030827   0.657549
H  -7.243026  -0.327736   0.795028

