%chk=/home/boittier/MDCM/nms_sampling/cyanomethane_geom.xyz.dir/cyanomethane_3439.chk
%nproc=8
%mem=16000MB
#p B2PLYPD3/Def2QZVP 

cyanomethane

0 1
C  -6.593955  -1.129622   1.147324
C  -5.203989  -0.773905   0.949842
N  -4.105924  -0.539293   0.677437
H  -6.624493  -1.210302   2.171717
H  -6.978985  -2.020314   0.738338
H  -7.098252  -0.343552   0.832118

