%chk=/home/boittier/MDCM/nms_sampling/cyanomethane_geom.xyz.dir/cyanomethane_621.chk
%nproc=8
%mem=16000MB
#p B2PLYPD3/Def2QZVP 

cyanomethane

0 1
C  -6.594278  -1.111832   1.170408
C  -5.202922  -0.815829   0.907213
N  -4.098521  -0.524152   0.701563
H  -6.726848  -1.189921   2.206231
H  -6.877913  -2.031718   0.682110
H  -7.211957  -0.294462   0.780051
