%chk=/home/boittier/MDCM/nms_sampling/cyanomethane_geom.xyz.dir/cyanomethane_2928.chk
%nproc=8
%mem=16000MB
#p B2PLYPD3/Def2QZVP 

cyanomethane

0 1
C  -6.605717  -1.118639   1.164883
C  -5.201992  -0.754719   0.901112
N  -4.101748  -0.552002   0.706657
H  -6.732648  -1.304890   2.250563
H  -6.854790  -2.102370   0.652551
H  -7.056056  -0.351260   0.813080
