%chk=/home/boittier/MDCM/nms_sampling/cyanomethane_geom.xyz.dir/cyanomethane_2148.chk
%nproc=8
%mem=16000MB
#p B2PLYPD3/Def2QZVP 

cyanomethane

0 1
C  -6.590846  -1.116009   1.167125
C  -5.205042  -0.778857   0.928610
N  -4.095014  -0.542231   0.686991
H  -6.662916  -1.267951   2.211145
H  -6.950376  -2.063151   0.633205
H  -7.267195  -0.305512   0.795879
