%chk=/home/boittier/MDCM/nms_sampling/cyanomethane_geom.xyz.dir/cyanomethane_1924.chk
%nproc=8
%mem=16000MB
#p B2PLYPD3/Def2QZVP 

cyanomethane

0 1
C  -6.597641  -1.111097   1.155153
C  -5.196220  -0.805108   0.882497
N  -4.091334  -0.531178   0.718956
H  -6.864666  -1.220607   2.304662
H  -6.846729  -1.999014   0.725306
H  -7.247500  -0.344611   0.861779

