%chk=/home/boittier/MDCM/nms_sampling/cyanomethane_geom.xyz.dir/cyanomethane_62.chk
%nproc=8
%mem=16000MB
#p B2PLYPD3/Def2QZVP 

cyanomethane

0 1
C  -6.604895  -1.116462   1.158252
C  -5.199045  -0.778765   0.902138
N  -4.092185  -0.544980   0.705787
H  -6.758205  -1.237310   2.253468
H  -6.818106  -2.030385   0.705619
H  -7.248000  -0.345177   0.835818
