%chk=/home/boittier/MDCM/nms_sampling/cyanomethane_geom.xyz.dir/cyanomethane_428.chk
%nproc=8
%mem=16000MB
#p B2PLYPD3/Def2QZVP 

cyanomethane

0 1
C  -6.589652  -1.115544   1.164219
C  -5.203484  -0.807790   0.910066
N  -4.097412  -0.526740   0.702444
H  -6.796504  -1.202427   2.265545
H  -6.898820  -2.031249   0.656011
H  -7.187196  -0.294053   0.778080
