%chk=/home/boittier/MDCM/nms_sampling/cyanomethane_geom.xyz.dir/cyanomethane_2650.chk
%nproc=8
%mem=16000MB
#p B2PLYPD3/Def2QZVP 

cyanomethane

0 1
C  -6.626465  -1.103616   1.157429
C  -5.190208  -0.777462   0.962196
N  -4.085463  -0.547785   0.675226
H  -6.728093  -1.262940   2.272487
H  -6.763693  -2.153642   0.576536
H  -7.276218  -0.302350   0.692151
