%chk=/home/boittier/MDCM/nms_sampling/cyanomethane_geom.xyz.dir/cyanomethane_3209.chk
%nproc=8
%mem=16000MB
#p B2PLYPD3/Def2QZVP 

cyanomethane

0 1
C  -6.631988  -1.116108   1.185187
C  -5.198291  -0.742453   0.876652
N  -4.076134  -0.562519   0.712358
H  -6.613086  -1.345642   2.268464
H  -6.879957  -2.120604   0.599672
H  -7.235683  -0.327813   0.810937
