%chk=/home/boittier/MDCM/nms_sampling/cyanomethane_geom.xyz.dir/cyanomethane_158.chk
%nproc=8
%mem=16000MB
#p B2PLYPD3/Def2QZVP 

cyanomethane

0 1
C  -6.604219  -1.108648   1.162216
C  -5.199167  -0.792030   0.914102
N  -4.090715  -0.538665   0.698179
H  -6.730106  -1.249009   2.233235
H  -6.844546  -2.058062   0.674855
H  -7.276789  -0.322277   0.811168

