%chk=/home/boittier/MDCM/nms_sampling/cyanomethane_geom.xyz.dir/cyanomethane_2420.chk
%nproc=8
%mem=16000MB
#p B2PLYPD3/Def2QZVP 

cyanomethane

0 1
C  -6.616592  -1.088904   1.179023
C  -5.197895  -0.835360   0.847145
N  -4.083872  -0.521693   0.735268
H  -6.796015  -1.182471   2.215342
H  -6.733908  -2.097152   0.788823
H  -7.282407  -0.343348   0.804819

