%chk=/home/boittier/MDCM/nms_sampling/cyanomethane_geom.xyz.dir/cyanomethane_922.chk
%nproc=8
%mem=16000MB
#p B2PLYPD3/Def2QZVP 

cyanomethane

0 1
C  -6.595718  -1.115228   1.162034
C  -5.203697  -0.787867   0.911325
N  -4.095756  -0.540487   0.701602
H  -6.774499  -1.223013   2.248089
H  -6.806431  -2.036116   0.668075
H  -7.249015  -0.319457   0.794491

