%chk=/home/boittier/MDCM/nms_sampling/cyanomethane_geom.xyz.dir/cyanomethane_2984.chk
%nproc=8
%mem=16000MB
#p B2PLYPD3/Def2QZVP 

cyanomethane

0 1
C  -6.599605  -1.105503   1.170277
C  -5.208401  -0.769223   0.900082
N  -4.095415  -0.557129   0.706288
H  -6.732131  -1.218043   2.206950
H  -6.652795  -2.077092   0.705173
H  -7.347042  -0.402156   0.754785
