%chk=/home/boittier/MDCM/nms_sampling/cyanomethane_geom.xyz.dir/cyanomethane_1035.chk
%nproc=8
%mem=16000MB
#p B2PLYPD3/Def2QZVP 

cyanomethane

0 1
C  -6.604796  -1.117983   1.167690
C  -5.201023  -0.784426   0.923386
N  -4.091017  -0.540495   0.692454
H  -6.706905  -1.217626   2.231502
H  -6.871397  -2.068239   0.643314
H  -7.239830  -0.295340   0.754811

