%chk=/home/boittier/MDCM/nms_sampling/cyanomethane_geom.xyz.dir/cyanomethane_3505.chk
%nproc=8
%mem=16000MB
#p B2PLYPD3/Def2QZVP 

cyanomethane

0 1
C  -6.617594  -1.098004   1.172181
C  -5.200457  -0.754952   0.913748
N  -4.088800  -0.563969   0.698350
H  -6.688169  -1.336689   2.281412
H  -6.670316  -2.172224   0.574951
H  -7.344767  -0.329003   0.747936
