%chk=/home/boittier/MDCM/nms_sampling/cyanomethane_geom.xyz.dir/cyanomethane_2376.chk
%nproc=8
%mem=16000MB
#p B2PLYPD3/Def2QZVP 

cyanomethane

0 1
C  -6.587510  -1.119277   1.180326
C  -5.203126  -0.796179   0.873836
N  -4.100317  -0.534726   0.719981
H  -6.799955  -1.170759   2.250466
H  -6.858815  -2.023579   0.682934
H  -7.213107  -0.333738   0.753867
