%chk=/home/boittier/MDCM/nms_sampling/cyanomethane_geom.xyz.dir/cyanomethane_1192.chk
%nproc=8
%mem=16000MB
#p B2PLYPD3/Def2QZVP 

cyanomethane

0 1
C  -6.597951  -1.111355   1.160216
C  -5.204560  -0.813754   0.911592
N  -4.095819  -0.525806   0.701698
H  -6.759715  -1.197390   2.240404
H  -6.831113  -2.015308   0.690660
H  -7.200879  -0.310227   0.803254
