%chk=/home/boittier/MDCM/nms_sampling/cyanomethane_geom.xyz.dir/cyanomethane_370.chk
%nproc=8
%mem=16000MB
#p B2PLYPD3/Def2QZVP 

cyanomethane

0 1
C  -6.588474  -1.112466   1.175068
C  -5.202464  -0.793745   0.882244
N  -4.098431  -0.536524   0.715614
H  -6.792136  -1.224548   2.254119
H  -6.866662  -2.069130   0.672278
H  -7.234526  -0.310672   0.783630
