%chk=/home/boittier/MDCM/nms_sampling/cyanomethane_geom.xyz.dir/cyanomethane_3570.chk
%nproc=8
%mem=16000MB
#p B2PLYPD3/Def2QZVP 

cyanomethane

0 1
C  -6.605312  -1.127067   1.181460
C  -5.200192  -0.794578   0.858538
N  -4.081724  -0.533593   0.725537
H  -6.778792  -1.115329   2.262980
H  -6.955958  -1.988637   0.748502
H  -7.217508  -0.380326   0.755108

