%chk=/home/boittier/MDCM/nms_sampling/cyanomethane_geom.xyz.dir/cyanomethane_689.chk
%nproc=8
%mem=16000MB
#p B2PLYPD3/Def2QZVP 

cyanomethane

0 1
C  -6.599151  -1.120043   1.170214
C  -5.200654  -0.774605   0.905299
N  -4.088979  -0.545259   0.703827
H  -6.805388  -1.234279   2.238295
H  -6.876617  -2.046931   0.642209
H  -7.237336  -0.328369   0.771824

