%chk=/home/boittier/MDCM/nms_sampling/cyanomethane_geom.xyz.dir/cyanomethane_679.chk
%nproc=8
%mem=16000MB
#p B2PLYPD3/Def2QZVP 

cyanomethane

0 1
C  -6.606251  -1.110281   1.161320
C  -5.198100  -0.789731   0.928920
N  -4.090712  -0.538926   0.692250
H  -6.768103  -1.234429   2.241229
H  -6.833857  -2.072960   0.643610
H  -7.239322  -0.321385   0.759947

