%chk=/home/boittier/MDCM/nms_sampling/cyanomethane_geom.xyz.dir/cyanomethane_3373.chk
%nproc=8
%mem=16000MB
#p B2PLYPD3/Def2QZVP 

cyanomethane

0 1
C  -6.599153  -1.132379   1.170403
C  -5.201003  -0.767812   0.953185
N  -4.104410  -0.546552   0.676004
H  -6.664617  -1.164922   2.155386
H  -6.861895  -2.024368   0.625111
H  -7.173591  -0.326163   0.687377

