%chk=/home/boittier/MDCM/nms_sampling/cyanomethane_geom.xyz.dir/cyanomethane_2107.chk
%nproc=8
%mem=16000MB
#p B2PLYPD3/Def2QZVP 

cyanomethane

0 1
C  -6.598458  -1.121419   1.181392
C  -5.202698  -0.769324   0.900674
N  -4.089272  -0.549684   0.704076
H  -6.756915  -1.229214   2.253528
H  -6.854957  -2.069534   0.596285
H  -7.287661  -0.298121   0.726753
