%chk=/home/boittier/MDCM/nms_sampling/cyanomethane_geom.xyz.dir/cyanomethane_2817.chk
%nproc=8
%mem=16000MB
#p B2PLYPD3/Def2QZVP 

cyanomethane

0 1
C  -6.573530  -1.091569   1.159132
C  -5.210672  -0.863886   0.925231
N  -4.102981  -0.499371   0.701496
H  -6.952781  -1.213133   2.266140
H  -6.823302  -2.010910   0.601873
H  -7.140059  -0.291950   0.756362
