%chk=/home/boittier/MDCM/nms_sampling/cyanomethane_geom.xyz.dir/cyanomethane_654.chk
%nproc=8
%mem=16000MB
#p B2PLYPD3/Def2QZVP 

cyanomethane

0 1
C  -6.597031  -1.118099   1.164770
C  -5.202621  -0.781221   0.920665
N  -4.098435  -0.541607   0.694955
H  -6.723333  -1.226358   2.238999
H  -6.859514  -2.062919   0.651854
H  -7.206043  -0.312575   0.768509
