%chk=/home/boittier/MDCM/nms_sampling/cyanomethane_geom.xyz.dir/cyanomethane_568.chk
%nproc=8
%mem=16000MB
#p B2PLYPD3/Def2QZVP 

cyanomethane

0 1
C  -6.601629  -1.118842   1.170735
C  -5.202791  -0.781357   0.898130
N  -4.093452  -0.542996   0.706000
H  -6.725267  -1.197883   2.232963
H  -6.842446  -2.053057   0.693662
H  -7.233012  -0.334996   0.770629

