%chk=/home/boittier/MDCM/nms_sampling/cyanomethane_geom.xyz.dir/cyanomethane_1347.chk
%nproc=8
%mem=16000MB
#p B2PLYPD3/Def2QZVP 

cyanomethane

0 1
C  -6.586957  -1.108929   1.172241
C  -5.207460  -0.829925   0.905700
N  -4.097762  -0.517385   0.701458
H  -6.714534  -1.159108   2.257069
H  -6.905765  -2.009407   0.668267
H  -7.243093  -0.313878   0.746468

