%chk=/home/boittier/MDCM/nms_sampling/cyanomethane_geom.xyz.dir/cyanomethane_1404.chk
%nproc=8
%mem=16000MB
#p B2PLYPD3/Def2QZVP 

cyanomethane

0 1
C  -6.607730  -1.108022   1.165656
C  -5.197228  -0.777830   0.893577
N  -4.092622  -0.548800   0.707966
H  -6.702224  -1.260670   2.252230
H  -6.782590  -2.061360   0.694940
H  -7.321063  -0.352164   0.828614

