%chk=/home/boittier/MDCM/nms_sampling/cyanomethane_geom.xyz.dir/cyanomethane_2371.chk
%nproc=8
%mem=16000MB
#p B2PLYPD3/Def2QZVP 

cyanomethane

0 1
C  -6.600245  -1.127971   1.158759
C  -5.195516  -0.768309   0.936486
N  -4.088653  -0.545319   0.685881
H  -6.761733  -1.250839   2.220725
H  -6.970459  -2.019960   0.633441
H  -7.239318  -0.303643   0.807151

