%chk=/home/boittier/MDCM/nms_sampling/cyanomethane_geom.xyz.dir/cyanomethane_1941.chk
%nproc=8
%mem=16000MB
#p B2PLYPD3/Def2QZVP 

cyanomethane

0 1
C  -6.583244  -1.109531   1.169198
C  -5.207902  -0.803823   0.887484
N  -4.098925  -0.531154   0.716949
H  -6.880270  -1.237787   2.234959
H  -6.814965  -2.054021   0.665780
H  -7.188892  -0.296644   0.805850

