%chk=/home/boittier/MDCM/nms_sampling/cyanomethane_geom.xyz.dir/cyanomethane_3201.chk
%nproc=8
%mem=16000MB
#p B2PLYPD3/Def2QZVP 

cyanomethane

0 1
C  -6.602701  -1.114396   1.186973
C  -5.197797  -0.849181   0.916896
N  -4.078357  -0.503584   0.693780
H  -6.750085  -1.162381   2.205034
H  -7.052368  -2.018378   0.575801
H  -7.256673  -0.185716   0.712713

