%chk=/home/boittier/MDCM/nms_sampling/cyanomethane_geom.xyz.dir/cyanomethane_2771.chk
%nproc=8
%mem=16000MB
#p B2PLYPD3/Def2QZVP 

cyanomethane

0 1
C  -6.589906  -1.118867   1.166880
C  -5.195278  -0.774602   0.862438
N  -4.090640  -0.544177   0.732462
H  -7.013072  -1.226839   2.297182
H  -6.884388  -2.105570   0.713116
H  -7.173411  -0.323748   0.798606
