%chk=/home/boittier/MDCM/nms_sampling/cyanomethane_geom.xyz.dir/cyanomethane_1732.chk
%nproc=8
%mem=16000MB
#p B2PLYPD3/Def2QZVP 

cyanomethane

0 1
C  -6.605130  -1.104789   1.168689
C  -5.200923  -0.768964   0.894165
N  -4.086290  -0.551962   0.709187
H  -6.780239  -1.318595   2.206535
H  -6.809927  -2.088309   0.666640
H  -7.289402  -0.354942   0.842124

