%chk=/home/boittier/MDCM/nms_sampling/cyanomethane_geom.xyz.dir/cyanomethane_2834.chk
%nproc=8
%mem=16000MB
#p B2PLYPD3/Def2QZVP 

cyanomethane

0 1
C  -6.602106  -1.131772   1.162281
C  -5.190029  -0.811161   0.904971
N  -4.086556  -0.518273   0.706390
H  -6.888664  -1.207392   2.243849
H  -7.045350  -1.987735   0.649926
H  -7.109009  -0.209888   0.839982
