%chk=/home/boittier/MDCM/nms_sampling/cyanomethane_geom.xyz.dir/cyanomethane_3091.chk
%nproc=8
%mem=16000MB
#p B2PLYPD3/Def2QZVP 

cyanomethane

0 1
C  -6.584756  -1.129572   1.159602
C  -5.202701  -0.777597   0.868915
N  -4.100578  -0.547813   0.728762
H  -6.930679  -1.136771   2.307245
H  -6.710732  -1.994462   0.751481
H  -7.266328  -0.328239   0.805688

