%chk=/home/boittier/MDCM/nms_sampling/cyanomethane_geom.xyz.dir/cyanomethane_1681.chk
%nproc=8
%mem=16000MB
#p B2PLYPD3/Def2QZVP 

cyanomethane

0 1
C  -6.587114  -1.127801   1.163889
C  -5.207237  -0.762259   0.906145
N  -4.100050  -0.550710   0.702110
H  -6.740576  -1.244536   2.241350
H  -6.869754  -2.000445   0.662285
H  -7.219478  -0.341769   0.824402

