%chk=/home/boittier/MDCM/nms_sampling/cyanomethane_geom.xyz.dir/cyanomethane_644.chk
%nproc=8
%mem=16000MB
#p B2PLYPD3/Def2QZVP 

cyanomethane

0 1
C  -6.604550  -1.120755   1.164879
C  -5.201370  -0.778854   0.915121
N  -4.089712  -0.543499   0.698623
H  -6.760002  -1.221614   2.223633
H  -6.843984  -2.057720   0.664934
H  -7.230513  -0.296078   0.783702
