%chk=/home/boittier/MDCM/nms_sampling/cyanomethane_geom.xyz.dir/cyanomethane_2292.chk
%nproc=8
%mem=16000MB
#p B2PLYPD3/Def2QZVP 

cyanomethane

0 1
C  -6.588717  -1.103291   1.160809
C  -5.206185  -0.788084   0.926247
N  -4.099712  -0.540766   0.690974
H  -6.693520  -1.302603   2.230609
H  -6.851267  -2.087496   0.637994
H  -7.282614  -0.308343   0.823156
