%chk=/home/boittier/MDCM/nms_sampling/cyanomethane_geom.xyz.dir/cyanomethane_1642.chk
%nproc=8
%mem=16000MB
#p B2PLYPD3/Def2QZVP 

cyanomethane

0 1
C  -6.584773  -1.118685   1.166629
C  -5.207733  -0.794099   0.887510
N  -4.099749  -0.533816   0.714231
H  -6.810646  -1.213946   2.254061
H  -6.879557  -1.993063   0.689390
H  -7.166830  -0.353704   0.816769

