%chk=/home/boittier/MDCM/nms_sampling/cyanomethane_geom.xyz.dir/cyanomethane_1093.chk
%nproc=8
%mem=16000MB
#p B2PLYPD3/Def2QZVP 

cyanomethane

0 1
C  -6.604712  -1.102875   1.163769
C  -5.198293  -0.800539   0.925299
N  -4.091253  -0.533096   0.692161
H  -6.726141  -1.275372   2.214912
H  -6.875110  -2.062035   0.639385
H  -7.247479  -0.326094   0.801799
