%chk=/home/boittier/MDCM/nms_sampling/cyanomethane_geom.xyz.dir/cyanomethane_2952.chk
%nproc=8
%mem=16000MB
#p B2PLYPD3/Def2QZVP 

cyanomethane

0 1
C  -6.572924  -1.115560   1.156298
C  -5.212626  -0.843639   0.943193
N  -4.102386  -0.504757   0.687906
H  -6.835569  -1.137333   2.289883
H  -6.958863  -2.058536   0.631525
H  -7.111136  -0.204933   0.711127
