%chk=/home/boittier/MDCM/nms_sampling/cyanomethane_geom.xyz.dir/cyanomethane_1813.chk
%nproc=8
%mem=16000MB
#p B2PLYPD3/Def2QZVP 

cyanomethane

0 1
C  -6.586858  -1.122405   1.170780
C  -5.205050  -0.780124   0.875641
N  -4.096032  -0.539819   0.720898
H  -6.854743  -1.249299   2.240029
H  -6.905667  -2.031679   0.680804
H  -7.153280  -0.315556   0.837757
