%chk=/home/boittier/MDCM/nms_sampling/cyanomethane_geom.xyz.dir/cyanomethane_558.chk
%nproc=8
%mem=16000MB
#p B2PLYPD3/Def2QZVP 

cyanomethane

0 1
C  -6.591804  -1.117606   1.156554
C  -5.201679  -0.774356   0.910961
N  -4.096814  -0.547067   0.701285
H  -6.779603  -1.249327   2.231246
H  -6.835396  -2.030562   0.697878
H  -7.270108  -0.337407   0.842392
