%chk=/home/boittier/MDCM/nms_sampling/cyanomethane_geom.xyz.dir/cyanomethane_3309.chk
%nproc=8
%mem=16000MB
#p B2PLYPD3/Def2QZVP 

cyanomethane

0 1
C  -6.603742  -1.098851   1.166438
C  -5.190075  -0.805377   0.966372
N  -4.085480  -0.537544   0.667983
H  -6.715653  -1.184996   2.136664
H  -6.833034  -2.038811   0.643011
H  -7.494842  -0.374104   0.691771
