%chk=/home/boittier/MDCM/nms_sampling/cyanomethane_geom.xyz.dir/cyanomethane_604.chk
%nproc=8
%mem=16000MB
#p B2PLYPD3/Def2QZVP 

cyanomethane

0 1
C  -6.595543  -1.105754   1.165549
C  -5.204308  -0.810595   0.914435
N  -4.097130  -0.528039   0.699257
H  -6.743456  -1.235125   2.249313
H  -6.840411  -2.061829   0.644277
H  -7.221453  -0.292313   0.782247
