%chk=/home/boittier/MDCM/nms_sampling/cyanomethane_geom.xyz.dir/cyanomethane_1650.chk
%nproc=8
%mem=16000MB
#p B2PLYPD3/Def2QZVP 

cyanomethane

0 1
C  -6.607287  -1.122604   1.178572
C  -5.199837  -0.759941   0.892688
N  -4.086403  -0.554861   0.708785
H  -6.758109  -1.245725   2.231841
H  -6.829261  -2.103122   0.636313
H  -7.277806  -0.276270   0.765400
