%chk=/home/boittier/MDCM/nms_sampling/cyanomethane_geom.xyz.dir/cyanomethane_1981.chk
%nproc=8
%mem=16000MB
#p B2PLYPD3/Def2QZVP 

cyanomethane

0 1
C  -6.605327  -1.106848   1.170084
C  -5.197077  -0.787171   0.900131
N  -4.089459  -0.544485   0.705608
H  -6.752811  -1.220220   2.275358
H  -6.787920  -2.076384   0.662835
H  -7.342307  -0.343220   0.754137

