%chk=/home/boittier/MDCM/nms_sampling/cyanomethane_geom.xyz.dir/cyanomethane_3374.chk
%nproc=8
%mem=16000MB
#p B2PLYPD3/Def2QZVP 

cyanomethane

0 1
C  -6.570897  -1.146821   1.154262
C  -5.204524  -0.727585   0.937849
N  -4.109652  -0.565977   0.685390
H  -6.770484  -1.203427   2.221038
H  -6.925020  -1.938517   0.669056
H  -7.229941  -0.412213   0.791768

