%chk=/home/boittier/MDCM/nms_sampling/cyanomethane_geom.xyz.dir/cyanomethane_749.chk
%nproc=8
%mem=16000MB
#p B2PLYPD3/Def2QZVP 

cyanomethane

0 1
C  -6.604514  -1.113346   1.157593
C  -5.201442  -0.794328   0.931006
N  -4.089604  -0.535748   0.692090
H  -6.782550  -1.237538   2.223681
H  -6.830879  -2.058899   0.651228
H  -7.222790  -0.283102   0.793632
