%chk=/home/boittier/MDCM/nms_sampling/cyanomethane_geom.xyz.dir/cyanomethane_3189.chk
%nproc=8
%mem=16000MB
#p B2PLYPD3/Def2QZVP 

cyanomethane

0 1
C  -6.601118  -1.116141   1.191931
C  -5.197729  -0.810206   0.859319
N  -4.079088  -0.529842   0.725716
H  -6.838257  -1.154952   2.190821
H  -6.895935  -2.011212   0.694259
H  -7.333921  -0.308156   0.758785
