%chk=/home/boittier/MDCM/nms_sampling/cyanomethane_geom.xyz.dir/cyanomethane_2032.chk
%nproc=8
%mem=16000MB
#p B2PLYPD3/Def2QZVP 

cyanomethane

0 1
C  -6.612951  -1.103465   1.181001
C  -5.200606  -0.811718   0.879069
N  -4.085183  -0.529319   0.717782
H  -6.775887  -1.236326   2.258899
H  -6.797072  -2.067021   0.630451
H  -7.234237  -0.293406   0.769276

