%chk=/home/boittier/MDCM/nms_sampling/cyanomethane_geom.xyz.dir/cyanomethane_496.chk
%nproc=8
%mem=16000MB
#p B2PLYPD3/Def2QZVP 

cyanomethane

0 1
C  -6.599291  -1.115087   1.176178
C  -5.200159  -0.801590   0.888261
N  -4.089235  -0.531882   0.711411
H  -6.771612  -1.195794   2.263547
H  -6.899916  -2.050417   0.662517
H  -7.248556  -0.299499   0.761968

