%chk=/home/boittier/MDCM/nms_sampling/cyanomethane_geom.xyz.dir/cyanomethane_1104.chk
%nproc=8
%mem=16000MB
#p B2PLYPD3/Def2QZVP 

cyanomethane

0 1
C  -6.594453  -1.108518   1.163525
C  -5.199635  -0.818117   0.911591
N  -4.093454  -0.523882   0.701254
H  -6.799000  -1.184087   2.225194
H  -6.880237  -2.028402   0.697468
H  -7.246990  -0.321306   0.779838

