%chk=/home/boittier/MDCM/nms_sampling/cyanomethane_geom.xyz.dir/cyanomethane_1713.chk
%nproc=8
%mem=16000MB
#p B2PLYPD3/Def2QZVP 

cyanomethane

0 1
C  -6.604537  -1.110246   1.147440
C  -5.199992  -0.797950   0.955677
N  -4.086016  -0.534253   0.680148
H  -6.804810  -1.213947   2.253032
H  -6.848649  -2.054314   0.652528
H  -7.252709  -0.323238   0.757948

