%chk=/home/boittier/MDCM/nms_sampling/cyanomethane_geom.xyz.dir/cyanomethane_1739.chk
%nproc=8
%mem=16000MB
#p B2PLYPD3/Def2QZVP 

cyanomethane

0 1
C  -6.581601  -1.104690   1.174364
C  -5.206450  -0.822365   0.907330
N  -4.100644  -0.518814   0.699321
H  -6.707888  -1.228805   2.223043
H  -6.984452  -2.027276   0.647411
H  -7.205539  -0.332581   0.779114
