%chk=/home/boittier/MDCM/nms_sampling/cyanomethane_geom.xyz.dir/cyanomethane_2251.chk
%nproc=8
%mem=16000MB
#p B2PLYPD3/Def2QZVP 

cyanomethane

0 1
C  -6.595950  -1.094831   1.166509
C  -5.204674  -0.838242   0.905418
N  -4.100459  -0.515311   0.703623
H  -6.708883  -1.218686   2.251669
H  -6.819314  -2.059801   0.673734
H  -7.221580  -0.296197   0.790530
