%chk=/home/boittier/MDCM/nms_sampling/cyanomethane_geom.xyz.dir/cyanomethane_708.chk
%nproc=8
%mem=16000MB
#p B2PLYPD3/Def2QZVP 

cyanomethane

0 1
C  -6.592247  -1.117283   1.160997
C  -5.201900  -0.769745   0.907382
N  -4.098134  -0.549535   0.702580
H  -6.768687  -1.254840   2.228615
H  -6.828461  -2.024699   0.683733
H  -7.262073  -0.361563   0.828759
