%chk=/home/boittier/MDCM/nms_sampling/cyanomethane_geom.xyz.dir/cyanomethane_2415.chk
%nproc=8
%mem=16000MB
#p B2PLYPD3/Def2QZVP 

cyanomethane

0 1
C  -6.581285  -1.137465   1.177234
C  -5.201544  -0.804758   0.851527
N  -4.104457  -0.526510   0.733510
H  -6.856851  -1.108683   2.305114
H  -6.903802  -1.947828   0.711390
H  -7.147338  -0.280231   0.790698
