%chk=/home/boittier/MDCM/nms_sampling/cyanomethane_geom.xyz.dir/cyanomethane_2310.chk
%nproc=8
%mem=16000MB
#p B2PLYPD3/Def2QZVP 

cyanomethane

0 1
C  -6.586170  -1.098877   1.173560
C  -5.201473  -0.803987   0.870922
N  -4.100387  -0.532395   0.723369
H  -6.841976  -1.303110   2.276689
H  -6.836430  -2.031592   0.635315
H  -7.228796  -0.358274   0.841394

