%chk=/home/boittier/MDCM/nms_sampling/cyanomethane_geom.xyz.dir/cyanomethane_633.chk
%nproc=8
%mem=16000MB
#p B2PLYPD3/Def2QZVP 

cyanomethane

0 1
C  -6.604549  -1.108618   1.167939
C  -5.200208  -0.812359   0.916589
N  -4.088998  -0.527114   0.697274
H  -6.750736  -1.206321   2.216073
H  -6.862179  -2.023215   0.657769
H  -7.247325  -0.320277   0.771426

