%chk=/home/boittier/MDCM/nms_sampling/cyanomethane_geom.xyz.dir/cyanomethane_2887.chk
%nproc=8
%mem=16000MB
#p B2PLYPD3/Def2QZVP 

cyanomethane

0 1
C  -6.572875  -1.105326   1.157806
C  -5.203900  -0.799844   0.855494
N  -4.109718  -0.535922   0.733966
H  -6.896168  -1.257191   2.214989
H  -6.772681  -1.973056   0.795749
H  -7.236375  -0.404252   0.943036

