%chk=/home/boittier/MDCM/nms_sampling/cyanomethane_geom.xyz.dir/cyanomethane_802.chk
%nproc=8
%mem=16000MB
#p B2PLYPD3/Def2QZVP 

cyanomethane

0 1
C  -6.598624  -1.104811   1.173242
C  -5.200206  -0.804286   0.886478
N  -4.090016  -0.532730   0.714241
H  -6.812693  -1.227689   2.266268
H  -6.842404  -2.056550   0.661869
H  -7.262527  -0.338045   0.775321
