%chk=/home/boittier/MDCM/nms_sampling/cyanomethane_geom.xyz.dir/cyanomethane_986.chk
%nproc=8
%mem=16000MB
#p B2PLYPD3/Def2QZVP 

cyanomethane

0 1
C  -6.590887  -1.109666   1.159079
C  -5.202339  -0.812396   0.920725
N  -4.098489  -0.525507   0.697660
H  -6.798429  -1.230275   2.258474
H  -6.866450  -2.019988   0.642977
H  -7.202108  -0.302944   0.798888

