%chk=/home/boittier/MDCM/nms_sampling/cyanomethane_geom.xyz.dir/cyanomethane_273.chk
%nproc=8
%mem=16000MB
#p B2PLYPD3/Def2QZVP 

cyanomethane

0 1
C  -6.597731  -1.105494   1.171497
C  -5.200471  -0.807908   0.897089
N  -4.090639  -0.530226   0.708436
H  -6.799229  -1.225637   2.256647
H  -6.857770  -2.056878   0.652937
H  -7.259298  -0.319194   0.772040
