%chk=/home/boittier/MDCM/nms_sampling/cyanomethane_geom.xyz.dir/cyanomethane_2969.chk
%nproc=8
%mem=16000MB
#p B2PLYPD3/Def2QZVP 

cyanomethane

0 1
C  -6.616048  -1.115919   1.163396
C  -5.199086  -0.842232   0.903666
N  -4.080299  -0.511241   0.708662
H  -6.858634  -1.081546   2.155181
H  -6.810373  -1.995020   0.776899
H  -7.186142  -0.274900   0.773321

