%chk=/home/boittier/MDCM/nms_sampling/cyanomethane_geom.xyz.dir/cyanomethane_2312.chk
%nproc=8
%mem=16000MB
#p B2PLYPD3/Def2QZVP 

cyanomethane

0 1
C  -6.594508  -1.103292   1.169773
C  -5.201906  -0.834620   0.909199
N  -4.099825  -0.516994   0.700254
H  -6.706136  -1.189537   2.226094
H  -6.840208  -1.996969   0.665358
H  -7.263762  -0.308269   0.783356

