%chk=/home/boittier/MDCM/nms_sampling/cyanomethane_geom.xyz.dir/cyanomethane_631.chk
%nproc=8
%mem=16000MB
#p B2PLYPD3/Def2QZVP 

cyanomethane

0 1
C  -6.593564  -1.120998   1.166711
C  -5.202306  -0.768164   0.903945
N  -4.097011  -0.549112   0.704038
H  -6.763718  -1.231308   2.261641
H  -6.855154  -2.061375   0.662604
H  -7.235542  -0.332072   0.778525

