%chk=/home/boittier/MDCM/nms_sampling/cyanomethane_geom.xyz.dir/cyanomethane_2477.chk
%nproc=8
%mem=16000MB
#p B2PLYPD3/Def2QZVP 

cyanomethane

0 1
C  -6.624691  -1.121251   1.145809
C  -5.192989  -0.728444   0.906901
N  -4.089095  -0.570394   0.706588
H  -6.790373  -1.350631   2.294389
H  -6.730082  -2.073868   0.669772
H  -7.180628  -0.360136   0.896748

