%chk=/home/boittier/MDCM/nms_sampling/cyanomethane_geom.xyz.dir/cyanomethane_3351.chk
%nproc=8
%mem=16000MB
#p B2PLYPD3/Def2QZVP 

cyanomethane

0 1
C  -6.569779  -1.125492   1.168876
C  -5.213917  -0.850199   0.925175
N  -4.102992  -0.502924   0.691780
H  -6.736377  -1.067115   2.204094
H  -6.977436  -1.951123   0.689084
H  -7.204506  -0.228040   0.734199
