%chk=/home/boittier/MDCM/nms_sampling/cyanomethane_geom.xyz.dir/cyanomethane_2663.chk
%nproc=8
%mem=16000MB
#p B2PLYPD3/Def2QZVP 

cyanomethane

0 1
C  -6.599522  -1.134646   1.160828
C  -5.206287  -0.828477   0.940707
N  -4.103113  -0.512161   0.687010
H  -6.719201  -1.083287   2.236379
H  -6.869285  -1.965049   0.650836
H  -7.062588  -0.209438   0.721416
