%chk=/home/boittier/MDCM/nms_sampling/cyanomethane_geom.xyz.dir/cyanomethane_3049.chk
%nproc=8
%mem=16000MB
#p B2PLYPD3/Def2QZVP 

cyanomethane

0 1
C  -6.622618  -1.093623   1.170564
C  -5.193582  -0.803244   0.932465
N  -4.084494  -0.533011   0.686767
H  -6.662376  -1.343380   2.248908
H  -6.853030  -2.083746   0.538328
H  -7.270152  -0.301737   0.786853

