%chk=/home/boittier/MDCM/nms_sampling/cyanomethane_geom.xyz.dir/cyanomethane_1671.chk
%nproc=8
%mem=16000MB
#p B2PLYPD3/Def2QZVP 

cyanomethane

0 1
C  -6.587646  -1.114480   1.174340
C  -5.205217  -0.763290   0.897185
N  -4.100939  -0.556836   0.706570
H  -6.747233  -1.220621   2.222141
H  -6.756692  -2.066809   0.676192
H  -7.332618  -0.373817   0.752678
