%chk=/home/boittier/MDCM/nms_sampling/cyanomethane_geom.xyz.dir/cyanomethane_827.chk
%nproc=8
%mem=16000MB
#p B2PLYPD3/Def2QZVP 

cyanomethane

0 1
C  -6.600297  -1.123659   1.159374
C  -5.200177  -0.782586   0.924823
N  -4.089005  -0.540004   0.692125
H  -6.744150  -1.210033   2.225246
H  -6.918893  -2.000632   0.677408
H  -7.247747  -0.331896   0.802666
