%chk=/home/boittier/MDCM/nms_sampling/cyanomethane_geom.xyz.dir/cyanomethane_1131.chk
%nproc=8
%mem=16000MB
#p B2PLYPD3/Def2QZVP 

cyanomethane

0 1
C  -6.589583  -1.123707   1.167298
C  -5.205253  -0.766371   0.905036
N  -4.096846  -0.550573   0.703238
H  -6.762940  -1.209829   2.264435
H  -6.848714  -2.057122   0.666773
H  -7.257937  -0.330041   0.763031

