%chk=/home/boittier/MDCM/nms_sampling/cyanomethane_geom.xyz.dir/cyanomethane_2708.chk
%nproc=8
%mem=16000MB
#p B2PLYPD3/Def2QZVP 

cyanomethane

0 1
C  -6.597016  -1.094252   1.158581
C  -5.191075  -0.821639   0.882034
N  -4.087145  -0.522473   0.720421
H  -6.947851  -1.312041   2.249258
H  -6.888414  -1.992003   0.680751
H  -7.249920  -0.367770   0.908471
