%chk=/home/boittier/MDCM/nms_sampling/cyanomethane_geom.xyz.dir/cyanomethane_1134.chk
%nproc=8
%mem=16000MB
#p B2PLYPD3/Def2QZVP 

cyanomethane

0 1
C  -6.594548  -1.117983   1.171299
C  -5.204825  -0.782550   0.920019
N  -4.096628  -0.542124   0.693747
H  -6.703415  -1.222341   2.223503
H  -6.858346  -2.055417   0.631055
H  -7.255921  -0.302943   0.753000
