%chk=/home/boittier/MDCM/nms_sampling/cyanomethane_geom.xyz.dir/cyanomethane_302.chk
%nproc=8
%mem=16000MB
#p B2PLYPD3/Def2QZVP 

cyanomethane

0 1
C  -6.606158  -1.109606   1.162157
C  -5.200009  -0.796142   0.930415
N  -4.089535  -0.535605   0.690338
H  -6.735978  -1.233555   2.233650
H  -6.848206  -2.067810   0.642924
H  -7.251209  -0.304792   0.767961
