%chk=/home/boittier/MDCM/nms_sampling/cyanomethane_geom.xyz.dir/cyanomethane_2060.chk
%nproc=8
%mem=16000MB
#p B2PLYPD3/Def2QZVP 

cyanomethane

0 1
C  -6.595691  -1.120326   1.156795
C  -5.201701  -0.778026   0.942152
N  -4.089042  -0.541570   0.683722
H  -6.766570  -1.214491   2.204019
H  -6.947719  -2.060115   0.678365
H  -7.232503  -0.333686   0.766938

