%chk=/home/boittier/MDCM/nms_sampling/cyanomethane_geom.xyz.dir/cyanomethane_1925.chk
%nproc=8
%mem=16000MB
#p B2PLYPD3/Def2QZVP 

cyanomethane

0 1
C  -6.585432  -1.101884   1.166692
C  -5.206487  -0.822281   0.915803
N  -4.097813  -0.523221   0.697105
H  -6.739631  -1.217909   2.200228
H  -6.867601  -2.035684   0.676830
H  -7.283618  -0.312797   0.793991
