%chk=/home/boittier/MDCM/nms_sampling/cyanomethane_geom.xyz.dir/cyanomethane_869.chk
%nproc=8
%mem=16000MB
#p B2PLYPD3/Def2QZVP 

cyanomethane

0 1
C  -6.599463  -1.106124   1.167018
C  -5.199863  -0.797048   0.928446
N  -4.093001  -0.535936   0.691123
H  -6.750290  -1.249545   2.214233
H  -6.845159  -2.073053   0.624199
H  -7.273850  -0.307151   0.762013
