%chk=/home/boittier/MDCM/nms_sampling/cyanomethane_geom.xyz.dir/cyanomethane_2192.chk
%nproc=8
%mem=16000MB
#p B2PLYPD3/Def2QZVP 

cyanomethane

0 1
C  -6.611384  -1.122438   1.172866
C  -5.198806  -0.789793   0.879513
N  -4.085703  -0.536522   0.717251
H  -6.786405  -1.172951   2.247050
H  -6.876733  -2.028453   0.714694
H  -7.176261  -0.338800   0.778289
