%chk=/home/boittier/MDCM/nms_sampling/cyanomethane_geom.xyz.dir/cyanomethane_603.chk
%nproc=8
%mem=16000MB
#p B2PLYPD3/Def2QZVP 

cyanomethane

0 1
C  -6.598371  -1.115150   1.172307
C  -5.201148  -0.794961   0.891602
N  -4.096125  -0.533892   0.710695
H  -6.767393  -1.244533   2.216420
H  -6.874786  -2.044352   0.665281
H  -7.178802  -0.296436   0.816379

