%chk=/home/boittier/MDCM/nms_sampling/cyanomethane_geom.xyz.dir/cyanomethane_2679.chk
%nproc=8
%mem=16000MB
#p B2PLYPD3/Def2QZVP 

cyanomethane

0 1
C  -6.569085  -1.122083   1.182068
C  -5.201622  -0.725057   0.900118
N  -4.106769  -0.573232   0.702250
H  -6.768777  -1.332436   2.183375
H  -6.888460  -2.089278   0.596457
H  -7.361570  -0.352600   0.792531

