%chk=/home/boittier/MDCM/nms_sampling/cyanomethane_geom.xyz.dir/cyanomethane_3204.chk
%nproc=8
%mem=16000MB
#p B2PLYPD3/Def2QZVP 

cyanomethane

0 1
C  -6.602778  -1.111767   1.192527
C  -5.189465  -0.807650   0.819656
N  -4.087139  -0.528063   0.743555
H  -6.764646  -1.214941   2.315667
H  -7.005964  -1.991672   0.703227
H  -7.265087  -0.379395   0.827205
