%chk=/home/boittier/MDCM/nms_sampling/cyanomethane_geom.xyz.dir/cyanomethane_3380.chk
%nproc=8
%mem=16000MB
#p B2PLYPD3/Def2QZVP 

cyanomethane

0 1
C  -6.598965  -1.122425   1.150885
C  -5.200006  -0.733767   0.916252
N  -4.080781  -0.572433   0.704348
H  -6.963397  -1.261311   2.280392
H  -6.710487  -2.121083   0.668863
H  -7.370422  -0.310709   0.789972

