%chk=/home/boittier/MDCM/nms_sampling/cyanomethane_geom.xyz.dir/cyanomethane_1470.chk
%nproc=8
%mem=16000MB
#p B2PLYPD3/Def2QZVP 

cyanomethane

0 1
C  -6.601600  -1.110171   1.154860
C  -5.199462  -0.755994   0.905927
N  -4.088647  -0.557869   0.704747
H  -6.812054  -1.303193   2.256761
H  -6.815146  -2.063333   0.690468
H  -7.281486  -0.404045   0.846706

