%chk=/home/boittier/MDCM/nms_sampling/cyanomethane_geom.xyz.dir/cyanomethane_843.chk
%nproc=8
%mem=16000MB
#p B2PLYPD3/Def2QZVP 

cyanomethane

0 1
C  -6.592667  -1.111504   1.160484
C  -5.204103  -0.815948   0.913040
N  -4.097648  -0.524805   0.701416
H  -6.785328  -1.192316   2.229769
H  -6.835669  -2.019411   0.690866
H  -7.214069  -0.297282   0.799785
