%chk=/home/boittier/MDCM/nms_sampling/cyanomethane_geom.xyz.dir/cyanomethane_2517.chk
%nproc=8
%mem=16000MB
#p B2PLYPD3/Def2QZVP 

cyanomethane

0 1
C  -6.594204  -1.140385   1.172809
C  -5.203712  -0.713384   0.908395
N  -4.085617  -0.575950   0.701210
H  -6.826844  -1.252742   2.211597
H  -6.887362  -2.095808   0.635965
H  -7.272347  -0.317278   0.756497

