%chk=/home/boittier/MDCM/nms_sampling/cyanomethane_geom.xyz.dir/cyanomethane_2878.chk
%nproc=8
%mem=16000MB
#p B2PLYPD3/Def2QZVP 

cyanomethane

0 1
C  -6.604126  -1.117303   1.186968
C  -5.188579  -0.755363   0.847358
N  -4.085444  -0.554515   0.730186
H  -6.804872  -1.294082   2.292664
H  -6.984659  -2.029215   0.647282
H  -7.264361  -0.429521   0.814056

