%chk=/home/boittier/MDCM/nms_sampling/cyanomethane_geom.xyz.dir/cyanomethane_1631.chk
%nproc=8
%mem=16000MB
#p B2PLYPD3/Def2QZVP 

cyanomethane

0 1
C  -6.595365  -1.121837   1.161065
C  -5.205553  -0.818931   0.908691
N  -4.099432  -0.519892   0.702661
H  -6.738237  -1.138966   2.220921
H  -6.886597  -2.026592   0.735720
H  -7.133400  -0.260593   0.792415
