%chk=/home/boittier/MDCM/nms_sampling/cyanomethane_geom.xyz.dir/cyanomethane_2262.chk
%nproc=8
%mem=16000MB
#p B2PLYPD3/Def2QZVP 

cyanomethane

0 1
C  -6.602255  -1.097135   1.164577
C  -5.199942  -0.834851   0.910737
N  -4.086305  -0.515300   0.700550
H  -6.768249  -1.219293   2.208087
H  -6.913292  -2.042101   0.697065
H  -7.245951  -0.323119   0.805631
