%chk=/home/boittier/MDCM/nms_sampling/cyanomethane_geom.xyz.dir/cyanomethane_1792.chk
%nproc=8
%mem=16000MB
#p B2PLYPD3/Def2QZVP 

cyanomethane

0 1
C  -6.609170  -1.125347   1.169800
C  -5.199764  -0.795536   0.882109
N  -4.086408  -0.534008   0.717513
H  -6.822239  -1.149738   2.205531
H  -6.842655  -2.023758   0.744971
H  -7.178468  -0.301668   0.794409
