%chk=/home/boittier/MDCM/nms_sampling/cyanomethane_geom.xyz.dir/cyanomethane_2872.chk
%nproc=8
%mem=16000MB
#p B2PLYPD3/Def2QZVP 

cyanomethane

0 1
C  -6.594663  -1.136731   1.167849
C  -5.191852  -0.771277   0.853204
N  -4.091033  -0.544232   0.731627
H  -6.888605  -1.176153   2.226772
H  -6.949280  -1.943734   0.784190
H  -7.210148  -0.371311   0.880017

