%chk=/home/boittier/MDCM/nms_sampling/cyanomethane_geom.xyz.dir/cyanomethane_3328.chk
%nproc=8
%mem=16000MB
#p B2PLYPD3/Def2QZVP 

cyanomethane

0 1
C  -6.604259  -1.119284   1.159704
C  -5.198839  -0.804443   0.910874
N  -4.082202  -0.522250   0.703331
H  -6.866431  -1.219138   2.297374
H  -7.040763  -2.013434   0.648912
H  -7.068196  -0.344241   0.782736
