%chk=/home/boittier/MDCM/nms_sampling/cyanomethane_geom.xyz.dir/cyanomethane_628.chk
%nproc=8
%mem=16000MB
#p B2PLYPD3/Def2QZVP 

cyanomethane

0 1
C  -6.595873  -1.106999   1.157548
C  -5.204475  -0.807637   0.918779
N  -4.095431  -0.528069   0.698082
H  -6.771819  -1.240418   2.227914
H  -6.863641  -2.043971   0.682491
H  -7.186825  -0.322465   0.817011
