%chk=/home/boittier/MDCM/nms_sampling/cyanomethane_geom.xyz.dir/cyanomethane_1653.chk
%nproc=8
%mem=16000MB
#p B2PLYPD3/Def2QZVP 

cyanomethane

0 1
C  -6.608273  -1.110937   1.150049
C  -5.196684  -0.776726   0.911981
N  -4.090936  -0.546801   0.700991
H  -6.753542  -1.265263   2.261337
H  -6.811403  -2.031263   0.714462
H  -7.265006  -0.376134   0.860236

