%chk=/home/boittier/MDCM/nms_sampling/cyanomethane_geom.xyz.dir/cyanomethane_2436.chk
%nproc=8
%mem=16000MB
#p B2PLYPD3/Def2QZVP 

cyanomethane

0 1
C  -6.593329  -1.102477   1.181166
C  -5.199187  -0.781327   0.846548
N  -4.085083  -0.548534   0.731133
H  -6.803257  -1.290459   2.196257
H  -6.844896  -1.984305   0.724117
H  -7.412065  -0.437346   0.891430
