%chk=/home/boittier/MDCM/nms_sampling/cyanomethane_geom.xyz.dir/cyanomethane_3445.chk
%nproc=8
%mem=16000MB
#p B2PLYPD3/Def2QZVP 

cyanomethane

0 1
C  -6.583161  -1.125451   1.167650
C  -5.205870  -0.730999   0.916863
N  -4.104814  -0.566323   0.693028
H  -6.667130  -1.294340   2.233616
H  -6.926341  -2.073091   0.643201
H  -7.232982  -0.392294   0.791378
