%chk=/home/boittier/MDCM/nms_sampling/cyanomethane_geom.xyz.dir/cyanomethane_1496.chk
%nproc=8
%mem=16000MB
#p B2PLYPD3/Def2QZVP 

cyanomethane

0 1
C  -6.594498  -1.103150   1.146846
C  -5.202251  -0.804703   0.942637
N  -4.098184  -0.530713   0.684703
H  -6.730763  -1.247639   2.222467
H  -6.864490  -2.025827   0.697695
H  -7.233077  -0.371533   0.827092
