%chk=/home/boittier/MDCM/nms_sampling/cyanomethane_geom.xyz.dir/cyanomethane_3264.chk
%nproc=8
%mem=16000MB
#p B2PLYPD3/Def2QZVP 

cyanomethane

0 1
C  -6.601219  -1.095954   1.154050
C  -5.200502  -0.810640   0.977991
N  -4.087518  -0.530588   0.667338
H  -6.765626  -1.250921   2.300887
H  -6.827819  -2.110918   0.536303
H  -7.328547  -0.286994   0.680880
