%chk=/home/boittier/MDCM/nms_sampling/cyanomethane_geom.xyz.dir/cyanomethane_2225.chk
%nproc=8
%mem=16000MB
#p B2PLYPD3/Def2QZVP 

cyanomethane

0 1
C  -6.583255  -1.112747   1.174475
C  -5.202846  -0.772649   0.893448
N  -4.101087  -0.551708   0.707763
H  -6.750430  -1.203291   2.219413
H  -6.809182  -2.089324   0.705802
H  -7.355179  -0.354200   0.753952

