%chk=/home/boittier/MDCM/nms_sampling/cyanomethane_geom.xyz.dir/cyanomethane_686.chk
%nproc=8
%mem=16000MB
#p B2PLYPD3/Def2QZVP 

cyanomethane

0 1
C  -6.603167  -1.118718   1.168987
C  -5.201834  -0.791360   0.887111
N  -4.090178  -0.535716   0.714874
H  -6.812032  -1.213088   2.247801
H  -6.860032  -2.062627   0.689729
H  -7.166384  -0.292553   0.798068

