%chk=/home/boittier/MDCM/nms_sampling/cyanomethane_geom.xyz.dir/cyanomethane_1402.chk
%nproc=8
%mem=16000MB
#p B2PLYPD3/Def2QZVP 

cyanomethane

0 1
C  -6.586227  -1.104473   1.169367
C  -5.207590  -0.790519   0.918242
N  -4.099457  -0.539509   0.694807
H  -6.709327  -1.292187   2.238785
H  -6.852119  -2.049261   0.601479
H  -7.284414  -0.332635   0.794659

