%chk=/home/boittier/MDCM/nms_sampling/cyanomethane_geom.xyz.dir/cyanomethane_1246.chk
%nproc=8
%mem=16000MB
#p B2PLYPD3/Def2QZVP 

cyanomethane

0 1
C  -6.613215  -1.099675   1.164865
C  -5.200176  -0.816348   0.912277
N  -4.085325  -0.525991   0.697632
H  -6.681461  -1.237698   2.211041
H  -6.868309  -2.027668   0.691662
H  -7.256969  -0.359023   0.814353
