%chk=/home/boittier/MDCM/nms_sampling/cyanomethane_geom.xyz.dir/cyanomethane_596.chk
%nproc=8
%mem=16000MB
#p B2PLYPD3/Def2QZVP 

cyanomethane

0 1
C  -6.595371  -1.118323   1.168400
C  -5.205465  -0.810521   0.910029
N  -4.096193  -0.525227   0.701397
H  -6.752500  -1.185558   2.221827
H  -6.881516  -2.032869   0.667569
H  -7.171325  -0.266341   0.776090
