%chk=/home/boittier/MDCM/nms_sampling/cyanomethane_geom.xyz.dir/cyanomethane_1622.chk
%nproc=8
%mem=16000MB
#p B2PLYPD3/Def2QZVP 

cyanomethane

0 1
C  -6.596955  -1.101507   1.169275
C  -5.201445  -0.798261   0.881616
N  -4.090293  -0.535686   0.716731
H  -6.801945  -1.287364   2.289165
H  -6.852315  -2.087085   0.654256
H  -7.263093  -0.311869   0.827417
