%chk=/home/boittier/MDCM/nms_sampling/cyanomethane_geom.xyz.dir/cyanomethane_445.chk
%nproc=8
%mem=16000MB
#p B2PLYPD3/Def2QZVP 

cyanomethane

0 1
C  -6.594956  -1.113634   1.176570
C  -5.200310  -0.791133   0.885887
N  -4.093684  -0.536897   0.713304
H  -6.794461  -1.241789   2.246358
H  -6.888407  -2.039640   0.644761
H  -7.225200  -0.328592   0.787848

