%chk=/home/boittier/MDCM/nms_sampling/cyanomethane_geom.xyz.dir/cyanomethane_2682.chk
%nproc=8
%mem=16000MB
#p B2PLYPD3/Def2QZVP 

cyanomethane

0 1
C  -6.576716  -1.140538   1.176589
C  -5.201197  -0.789344   0.873231
N  -4.106437  -0.536749   0.721228
H  -6.840746  -1.087582   2.299507
H  -6.871422  -1.947143   0.688465
H  -7.229345  -0.304584   0.736704
