%chk=/home/boittier/MDCM/nms_sampling/cyanomethane_geom.xyz.dir/cyanomethane_3409.chk
%nproc=8
%mem=16000MB
#p B2PLYPD3/Def2QZVP 

cyanomethane

0 1
C  -6.594918  -1.138570   1.154134
C  -5.212267  -0.721820   0.915987
N  -4.098266  -0.571177   0.695226
H  -6.657653  -1.217695   2.141750
H  -6.847736  -2.065766   0.802026
H  -7.189688  -0.378567   0.848564

