%chk=/home/boittier/MDCM/nms_sampling/cyanomethane_geom.xyz.dir/cyanomethane_743.chk
%nproc=8
%mem=16000MB
#p B2PLYPD3/Def2QZVP 

cyanomethane

0 1
C  -6.596751  -1.123024   1.164258
C  -5.201615  -0.768216   0.903863
N  -4.091067  -0.548639   0.703122
H  -6.760671  -1.221718   2.240619
H  -6.891408  -2.020811   0.692679
H  -7.255127  -0.365753   0.803017
