%chk=/home/boittier/MDCM/nms_sampling/cyanomethane_geom.xyz.dir/cyanomethane_2108.chk
%nproc=8
%mem=16000MB
#p B2PLYPD3/Def2QZVP 

cyanomethane

0 1
C  -6.613070  -1.112378   1.170410
C  -5.199616  -0.783285   0.896336
N  -4.086375  -0.545902   0.708665
H  -6.766203  -1.204969   2.217969
H  -6.743107  -2.039534   0.692689
H  -7.291966  -0.357779   0.774434

