%chk=/home/boittier/MDCM/nms_sampling/cyanomethane_geom.xyz.dir/cyanomethane_1656.chk
%nproc=8
%mem=16000MB
#p B2PLYPD3/Def2QZVP 

cyanomethane

0 1
C  -6.593004  -1.125739   1.168331
C  -5.206417  -0.758177   0.900494
N  -4.095347  -0.551976   0.706325
H  -6.784125  -1.275117   2.211839
H  -6.869505  -2.049676   0.650945
H  -7.178841  -0.312955   0.825240
