%chk=/home/boittier/MDCM/nms_sampling/cyanomethane_geom.xyz.dir/cyanomethane_2897.chk
%nproc=8
%mem=16000MB
#p B2PLYPD3/Def2QZVP 

cyanomethane

0 1
C  -6.566563  -1.100255   1.188960
C  -5.210442  -0.835488   0.889267
N  -4.104475  -0.510580   0.707763
H  -6.734962  -1.288027   2.200815
H  -7.044301  -2.019229   0.577037
H  -7.196716  -0.283139   0.805113

