%chk=/home/boittier/MDCM/nms_sampling/cyanomethane_geom.xyz.dir/cyanomethane_2711.chk
%nproc=8
%mem=16000MB
#p B2PLYPD3/Def2QZVP 

cyanomethane

0 1
C  -6.596257  -1.090080   1.184103
C  -5.213734  -0.813968   0.871346
N  -4.101933  -0.530481   0.724283
H  -6.780835  -1.287329   2.241462
H  -6.666381  -2.098111   0.611237
H  -7.169352  -0.322748   0.772919
