%chk=/home/boittier/MDCM/nms_sampling/cyanomethane_geom.xyz.dir/cyanomethane_2190.chk
%nproc=8
%mem=16000MB
#p B2PLYPD3/Def2QZVP 

cyanomethane

0 1
C  -6.587854  -1.118437   1.161203
C  -5.207108  -0.824322   0.921674
N  -4.097908  -0.516410   0.697220
H  -6.798297  -1.170298   2.261562
H  -6.913599  -1.995880   0.648562
H  -7.142452  -0.271732   0.768825
