%chk=/home/boittier/MDCM/nms_sampling/cyanomethane_geom.xyz.dir/cyanomethane_3361.chk
%nproc=8
%mem=16000MB
#p B2PLYPD3/Def2QZVP 

cyanomethane

0 1
C  -6.595208  -1.118194   1.149017
C  -5.201460  -0.776365   0.963393
N  -4.090739  -0.547721   0.674236
H  -6.783641  -1.198186   2.204612
H  -6.809132  -1.987783   0.657569
H  -7.343169  -0.381505   0.756250

