%chk=/home/boittier/MDCM/nms_sampling/cyanomethane_geom.xyz.dir/cyanomethane_2422.chk
%nproc=8
%mem=16000MB
#p B2PLYPD3/Def2QZVP 

cyanomethane

0 1
C  -6.628021  -1.126097   1.134765
C  -5.197940  -0.734247   0.930437
N  -4.077784  -0.571553   0.693831
H  -6.768635  -1.221014   2.285119
H  -6.680980  -2.057002   0.762779
H  -7.311798  -0.383875   0.838220

