%chk=/home/boittier/MDCM/nms_sampling/cyanomethane_geom.xyz.dir/cyanomethane_1973.chk
%nproc=8
%mem=16000MB
#p B2PLYPD3/Def2QZVP 

cyanomethane

0 1
C  -6.587563  -1.110089   1.178282
C  -5.201105  -0.820259   0.892894
N  -4.099240  -0.519999   0.706838
H  -6.715490  -1.224032   2.270598
H  -6.976898  -2.008757   0.622237
H  -7.218408  -0.305238   0.781490

