%chk=/home/boittier/MDCM/nms_sampling/cyanomethane_geom.xyz.dir/cyanomethane_406.chk
%nproc=8
%mem=16000MB
#p B2PLYPD3/Def2QZVP 

cyanomethane

0 1
C  -6.595141  -1.115548   1.168849
C  -5.199609  -0.804616   0.910229
N  -4.094641  -0.528882   0.701400
H  -6.791422  -1.201585   2.232345
H  -6.901174  -2.026342   0.653499
H  -7.208901  -0.307346   0.768272

