%chk=/home/boittier/MDCM/nms_sampling/cyanomethane_geom.xyz.dir/cyanomethane_1144.chk
%nproc=8
%mem=16000MB
#p B2PLYPD3/Def2QZVP 

cyanomethane

0 1
C  -6.604467  -1.114400   1.162029
C  -5.200390  -0.782409   0.925834
N  -4.091067  -0.540554   0.692320
H  -6.736261  -1.252030   2.210314
H  -6.885175  -2.067866   0.660168
H  -7.206661  -0.320861   0.793039
