%chk=/home/boittier/MDCM/nms_sampling/cyanomethane_geom.xyz.dir/cyanomethane_1149.chk
%nproc=8
%mem=16000MB
#p B2PLYPD3/Def2QZVP 

cyanomethane

0 1
C  -6.601342  -1.104246   1.165605
C  -5.200097  -0.816018   0.911053
N  -4.089088  -0.524631   0.699362
H  -6.739579  -1.229734   2.220737
H  -6.909328  -2.036702   0.679506
H  -7.248868  -0.325818   0.805094

