%chk=/home/boittier/MDCM/nms_sampling/cyanomethane_geom.xyz.dir/cyanomethane_2301.chk
%nproc=8
%mem=16000MB
#p B2PLYPD3/Def2QZVP 

cyanomethane

0 1
C  -6.599309  -1.095555   1.162973
C  -5.199172  -0.800107   0.935496
N  -4.086381  -0.534055   0.685964
H  -6.740756  -1.301728   2.213762
H  -6.924001  -2.086173   0.624107
H  -7.306904  -0.348431   0.791048
