%chk=/home/boittier/MDCM/nms_sampling/cyanomethane_geom.xyz.dir/cyanomethane_2072.chk
%nproc=8
%mem=16000MB
#p B2PLYPD3/Def2QZVP 

cyanomethane

0 1
C  -6.596391  -1.099560   1.167559
C  -5.203568  -0.787124   0.889498
N  -4.101716  -0.541378   0.712388
H  -6.743971  -1.309746   2.257726
H  -6.795132  -2.080776   0.658477
H  -7.200034  -0.365942   0.831768
