%chk=/home/boittier/MDCM/nms_sampling/cyanomethane_geom.xyz.dir/cyanomethane_1613.chk
%nproc=8
%mem=16000MB
#p B2PLYPD3/Def2QZVP 

cyanomethane

0 1
C  -6.608118  -1.112762   1.164712
C  -5.196255  -0.824184   0.917023
N  -4.090670  -0.516315   0.699713
H  -6.805724  -1.219451   2.203651
H  -6.912353  -2.031192   0.650041
H  -7.121211  -0.251282   0.802600

