%chk=/home/boittier/MDCM/nms_sampling/cyanomethane_geom.xyz.dir/cyanomethane_3224.chk
%nproc=8
%mem=16000MB
#p B2PLYPD3/Def2QZVP 

cyanomethane

0 1
C  -6.617335  -1.114331   1.136493
C  -5.200295  -0.737076   0.918378
N  -4.081226  -0.567859   0.701565
H  -6.827931  -1.328710   2.319695
H  -6.737722  -2.077560   0.700447
H  -7.247752  -0.397189   0.884349

