%chk=/home/boittier/MDCM/nms_sampling/cyanomethane_geom.xyz.dir/cyanomethane_1313.chk
%nproc=8
%mem=16000MB
#p B2PLYPD3/Def2QZVP 

cyanomethane

0 1
C  -6.603727  -1.108092   1.164317
C  -5.199867  -0.807049   0.875311
N  -4.085961  -0.532243   0.722150
H  -6.853241  -1.191084   2.280721
H  -6.799077  -2.015282   0.731096
H  -7.264921  -0.363455   0.813905
