%chk=/home/boittier/MDCM/nms_sampling/cyanomethane_geom.xyz.dir/cyanomethane_1429.chk
%nproc=8
%mem=16000MB
#p B2PLYPD3/Def2QZVP 

cyanomethane

0 1
C  -6.585610  -1.101266   1.162449
C  -5.202259  -0.797208   0.942749
N  -4.098840  -0.537001   0.681274
H  -6.704333  -1.256088   2.182019
H  -6.879907  -2.050990   0.649456
H  -7.341709  -0.360415   0.777628
