%chk=/home/boittier/MDCM/nms_sampling/cyanomethane_geom.xyz.dir/cyanomethane_1588.chk
%nproc=8
%mem=16000MB
#p B2PLYPD3/Def2QZVP 

cyanomethane

0 1
C  -6.580871  -1.129430   1.174501
C  -5.207715  -0.787542   0.870741
N  -4.098627  -0.536470   0.724294
H  -6.872865  -1.192352   2.278593
H  -6.879188  -2.029217   0.666093
H  -7.166558  -0.259385   0.794692

