%chk=/home/boittier/MDCM/nms_sampling/cyanomethane_geom.xyz.dir/cyanomethane_3235.chk
%nproc=8
%mem=16000MB
#p B2PLYPD3/Def2QZVP 

cyanomethane

0 1
C  -6.574702  -1.095831   1.166355
C  -5.209396  -0.767867   0.900563
N  -4.102285  -0.554855   0.704827
H  -6.746091  -1.354225   2.267251
H  -6.810791  -2.159394   0.636599
H  -7.364165  -0.324493   0.829107

