%chk=/home/boittier/MDCM/nms_sampling/cyanomethane_geom.xyz.dir/cyanomethane_1427.chk
%nproc=8
%mem=16000MB
#p B2PLYPD3/Def2QZVP 

cyanomethane

0 1
C  -6.602062  -1.103907   1.166075
C  -5.196680  -0.800884   0.880931
N  -4.092372  -0.532790   0.719541
H  -6.859712  -1.296601   2.223723
H  -6.828762  -2.044737   0.677547
H  -7.194368  -0.321107   0.873115
