%chk=/home/boittier/MDCM/nms_sampling/cyanomethane_geom.xyz.dir/cyanomethane_2481.chk
%nproc=8
%mem=16000MB
#p B2PLYPD3/Def2QZVP 

cyanomethane

0 1
C  -6.578691  -1.099896   1.164189
C  -5.203059  -0.748058   0.891049
N  -4.106589  -0.567491   0.706237
H  -6.663553  -1.339906   2.209100
H  -6.787067  -2.095945   0.727593
H  -7.437668  -0.424544   0.883095

