%chk=/home/boittier/MDCM/nms_sampling/cyanomethane_geom.xyz.dir/cyanomethane_845.chk
%nproc=8
%mem=16000MB
#p B2PLYPD3/Def2QZVP 

cyanomethane

0 1
C  -6.600087  -1.107147   1.161568
C  -5.201307  -0.800742   0.923039
N  -4.093619  -0.534019   0.692955
H  -6.707503  -1.232853   2.226037
H  -6.853174  -2.038969   0.671983
H  -7.275078  -0.334972   0.796915
