%chk=/home/boittier/MDCM/nms_sampling/cyanomethane_geom.xyz.dir/cyanomethane_794.chk
%nproc=8
%mem=16000MB
#p B2PLYPD3/Def2QZVP 

cyanomethane

0 1
C  -6.597183  -1.113189   1.170470
C  -5.201274  -0.790292   0.911975
N  -4.096988  -0.537892   0.699151
H  -6.731123  -1.227705   2.230025
H  -6.862624  -2.089424   0.650826
H  -7.229027  -0.290048   0.761101

