%chk=/home/boittier/MDCM/nms_sampling/cyanomethane_geom.xyz.dir/cyanomethane_732.chk
%nproc=8
%mem=16000MB
#p B2PLYPD3/Def2QZVP 

cyanomethane

0 1
C  -6.594306  -1.109958   1.165120
C  -5.205095  -0.801344   0.920429
N  -4.096942  -0.533672   0.694642
H  -6.711260  -1.211947   2.218998
H  -6.838079  -2.063106   0.672716
H  -7.263327  -0.299388   0.774649

