%chk=/home/boittier/MDCM/nms_sampling/cyanomethane_geom.xyz.dir/cyanomethane_2732.chk
%nproc=8
%mem=16000MB
#p B2PLYPD3/Def2QZVP 

cyanomethane

0 1
C  -6.581280  -1.117556   1.185256
C  -5.199913  -0.775414   0.844104
N  -4.103289  -0.542990   0.732488
H  -6.765507  -1.285033   2.276129
H  -6.970841  -2.076966   0.672297
H  -7.203476  -0.311135   0.846066

