%chk=/home/boittier/MDCM/nms_sampling/cyanomethane_geom.xyz.dir/cyanomethane_223.chk
%nproc=8
%mem=16000MB
#p B2PLYPD3/Def2QZVP 

cyanomethane

0 1
C  -6.601819  -1.103475   1.167012
C  -5.201730  -0.814607   0.911086
N  -4.090214  -0.526020   0.699856
H  -6.738807  -1.252900   2.220493
H  -6.870311  -2.036533   0.650387
H  -7.247546  -0.305334   0.813535

