%chk=/home/boittier/MDCM/nms_sampling/cyanomethane_geom.xyz.dir/cyanomethane_2673.chk
%nproc=8
%mem=16000MB
#p B2PLYPD3/Def2QZVP 

cyanomethane

0 1
C  -6.624991  -1.104368   1.159158
C  -5.196553  -0.790379   0.954524
N  -4.077506  -0.540862   0.671389
H  -6.576167  -1.273992   2.129006
H  -6.873934  -1.996683   0.667862
H  -7.367022  -0.382164   0.831361
