%chk=/home/boittier/MDCM/nms_sampling/cyanomethane_geom.xyz.dir/cyanomethane_3298.chk
%nproc=8
%mem=16000MB
#p B2PLYPD3/Def2QZVP 

cyanomethane

0 1
C  -6.600854  -1.139518   1.152545
C  -5.192586  -0.767800   0.981791
N  -4.090982  -0.546779   0.661821
H  -6.736442  -1.079062   2.204298
H  -6.946902  -1.986010   0.677714
H  -7.288377  -0.370736   0.651488
