%chk=/home/boittier/MDCM/nms_sampling/cyanomethane_geom.xyz.dir/cyanomethane_1842.chk
%nproc=8
%mem=16000MB
#p B2PLYPD3/Def2QZVP 

cyanomethane

0 1
C  -6.598883  -1.121126   1.161700
C  -5.202929  -0.786729   0.935318
N  -4.097738  -0.538619   0.687286
H  -6.712772  -1.187964   2.181191
H  -6.853273  -2.053238   0.685638
H  -7.205659  -0.301412   0.761027
