%chk=/home/boittier/MDCM/nms_sampling/cyanomethane_geom.xyz.dir/cyanomethane_390.chk
%nproc=8
%mem=16000MB
#p B2PLYPD3/Def2QZVP 

cyanomethane

0 1
C  -6.598379  -1.113564   1.170515
C  -5.201615  -0.789483   0.918016
N  -4.096699  -0.537653   0.694374
H  -6.692391  -1.250988   2.207901
H  -6.884090  -2.037023   0.632866
H  -7.232173  -0.320045   0.787658
