%chk=/home/boittier/MDCM/nms_sampling/cyanomethane_geom.xyz.dir/cyanomethane_2189.chk
%nproc=8
%mem=16000MB
#p B2PLYPD3/Def2QZVP 

cyanomethane

0 1
C  -6.600120  -1.103243   1.174357
C  -5.202457  -0.784415   0.889281
N  -4.099291  -0.543266   0.710846
H  -6.717271  -1.315303   2.227967
H  -6.789859  -2.050861   0.628460
H  -7.234113  -0.349779   0.833877

