%chk=/home/boittier/MDCM/nms_sampling/cyanomethane_geom.xyz.dir/cyanomethane_825.chk
%nproc=8
%mem=16000MB
#p B2PLYPD3/Def2QZVP 

cyanomethane

0 1
C  -6.596815  -1.109327   1.167001
C  -5.199665  -0.801617   0.893371
N  -4.092451  -0.533934   0.711155
H  -6.811440  -1.213952   2.275719
H  -6.833904  -2.042291   0.674955
H  -7.266698  -0.328010   0.786599
