%chk=/home/boittier/MDCM/nms_sampling/cyanomethane_geom.xyz.dir/cyanomethane_2042.chk
%nproc=8
%mem=16000MB
#p B2PLYPD3/Def2QZVP 

cyanomethane

0 1
C  -6.593427  -1.126611   1.165960
C  -5.198632  -0.811974   0.910974
N  -4.093750  -0.523915   0.701332
H  -6.806453  -1.132222   2.264100
H  -6.926315  -1.975439   0.668886
H  -7.214932  -0.286679   0.752539

