%chk=/home/boittier/MDCM/nms_sampling/cyanomethane_geom.xyz.dir/cyanomethane_1354.chk
%nproc=8
%mem=16000MB
#p B2PLYPD3/Def2QZVP 

cyanomethane

0 1
C  -6.595624  -1.114759   1.165673
C  -5.202620  -0.806950   0.879485
N  -4.099341  -0.532114   0.719953
H  -6.809745  -1.183591   2.232479
H  -6.746120  -2.033041   0.733671
H  -7.236218  -0.275310   0.829865
