%chk=/home/boittier/MDCM/nms_sampling/cyanomethane_geom.xyz.dir/cyanomethane_2364.chk
%nproc=8
%mem=16000MB
#p B2PLYPD3/Def2QZVP 

cyanomethane

0 1
C  -6.600002  -1.110569   1.164431
C  -5.198931  -0.785069   0.884822
N  -4.087501  -0.541569   0.717016
H  -6.862760  -1.288718   2.292293
H  -6.836415  -2.036836   0.643764
H  -7.251597  -0.325084   0.846233

