%chk=/home/boittier/MDCM/nms_sampling/cyanomethane_geom.xyz.dir/cyanomethane_3060.chk
%nproc=8
%mem=16000MB
#p B2PLYPD3/Def2QZVP 

cyanomethane

0 1
C  -6.620627  -1.087213   1.166219
C  -5.197822  -0.845077   0.932882
N  -4.081411  -0.513132   0.688849
H  -6.699128  -1.278096   2.206165
H  -6.814849  -2.099341   0.605360
H  -7.285900  -0.218437   0.797416
