%chk=/home/boittier/MDCM/nms_sampling/cyanomethane_geom.xyz.dir/cyanomethane_3347.chk
%nproc=8
%mem=16000MB
#p B2PLYPD3/Def2QZVP 

cyanomethane

0 1
C  -6.603667  -1.121690   1.187224
C  -5.191117  -0.810905   0.852579
N  -4.085931  -0.527512   0.725929
H  -6.723693  -1.133309   2.258752
H  -6.974432  -2.031892   0.734345
H  -7.322101  -0.275409   0.779848

