%chk=/home/boittier/MDCM/nms_sampling/cyanomethane_geom.xyz.dir/cyanomethane_285.chk
%nproc=8
%mem=16000MB
#p B2PLYPD3/Def2QZVP 

cyanomethane

0 1
C  -6.594941  -1.106876   1.170026
C  -5.201258  -0.813327   0.910469
N  -4.091042  -0.526449   0.701636
H  -6.807048  -1.218717   2.224856
H  -6.876906  -2.044051   0.644834
H  -7.250575  -0.304934   0.767975

