%chk=/home/boittier/MDCM/nms_sampling/cyanomethane_geom.xyz.dir/cyanomethane_3258.chk
%nproc=8
%mem=16000MB
#p B2PLYPD3/Def2QZVP 

cyanomethane

0 1
C  -6.574982  -1.107735   1.193473
C  -5.208716  -0.842481   0.909016
N  -4.101895  -0.508537   0.700127
H  -6.782710  -1.168824   2.229921
H  -6.955278  -2.018763   0.539471
H  -7.198115  -0.269202   0.654275
