%chk=/home/boittier/MDCM/nms_sampling/cyanomethane_geom.xyz.dir/cyanomethane_2541.chk
%nproc=8
%mem=16000MB
#p B2PLYPD3/Def2QZVP 

cyanomethane

0 1
C  -6.594773  -1.112446   1.190281
C  -5.198825  -0.779411   0.853758
N  -4.087954  -0.541854   0.725742
H  -6.758384  -1.281832   2.262366
H  -6.996434  -2.025020   0.638431
H  -7.252729  -0.391196   0.808924

