%chk=/home/boittier/MDCM/nms_sampling/cyanomethane_geom.xyz.dir/cyanomethane_3196.chk
%nproc=8
%mem=16000MB
#p B2PLYPD3/Def2QZVP 

cyanomethane

0 1
C  -6.581525  -1.095365   1.171502
C  -5.202465  -0.804867   0.968642
N  -4.107669  -0.534903   0.669076
H  -6.709202  -1.257645   2.213940
H  -6.798111  -2.075772   0.513725
H  -7.346379  -0.329725   0.661636

