%chk=/home/boittier/MDCM/nms_sampling/cyanomethane_geom.xyz.dir/cyanomethane_2924.chk
%nproc=8
%mem=16000MB
#p B2PLYPD3/Def2QZVP 

cyanomethane

0 1
C  -6.619148  -1.129018   1.181924
C  -5.198488  -0.785323   0.848172
N  -4.084315  -0.537066   0.739429
H  -6.929124  -1.172657   2.268645
H  -6.796274  -2.064818   0.685580
H  -7.042900  -0.275603   0.760486

