%chk=/home/boittier/MDCM/nms_sampling/cyanomethane_geom.xyz.dir/cyanomethane_1386.chk
%nproc=8
%mem=16000MB
#p B2PLYPD3/Def2QZVP 

cyanomethane

0 1
C  -6.608444  -1.112384   1.166686
C  -5.195083  -0.768836   0.891187
N  -4.089394  -0.553798   0.708916
H  -6.723710  -1.269887   2.245028
H  -6.785298  -2.023262   0.682781
H  -7.359548  -0.365519   0.845289
