%chk=/home/boittier/MDCM/nms_sampling/cyanomethane_geom.xyz.dir/cyanomethane_519.chk
%nproc=8
%mem=16000MB
#p B2PLYPD3/Def2QZVP 

cyanomethane

0 1
C  -6.586288  -1.119155   1.163643
C  -5.205084  -0.797279   0.892776
N  -4.097603  -0.532464   0.710255
H  -6.781592  -1.204922   2.254866
H  -6.909514  -2.014652   0.708449
H  -7.208414  -0.318367   0.825473
