%chk=/home/boittier/MDCM/nms_sampling/cyanomethane_geom.xyz.dir/cyanomethane_535.chk
%nproc=8
%mem=16000MB
#p B2PLYPD3/Def2QZVP 

cyanomethane

0 1
C  -6.595685  -1.106308   1.166411
C  -5.202263  -0.812062   0.908102
N  -4.091808  -0.527254   0.700983
H  -6.744234  -1.240846   2.227550
H  -6.889843  -2.022341   0.662973
H  -7.267911  -0.314268   0.817543

