%chk=/home/boittier/MDCM/nms_sampling/cyanomethane_geom.xyz.dir/cyanomethane_1478.chk
%nproc=8
%mem=16000MB
#p B2PLYPD3/Def2QZVP 

cyanomethane

0 1
C  -6.593907  -1.101168   1.165118
C  -5.205996  -0.808047   0.935572
N  -4.094922  -0.530155   0.686450
H  -6.702946  -1.252281   2.216953
H  -6.862428  -2.098426   0.628142
H  -7.269600  -0.285470   0.761957

