%chk=/home/boittier/MDCM/nms_sampling/cyanomethane_geom.xyz.dir/cyanomethane_1742.chk
%nproc=8
%mem=16000MB
#p B2PLYPD3/Def2QZVP 

cyanomethane

0 1
C  -6.594244  -1.118218   1.167210
C  -5.202683  -0.817039   0.899442
N  -4.100351  -0.520257   0.705779
H  -6.726204  -1.184549   2.202985
H  -6.929309  -2.005389   0.713213
H  -7.137470  -0.290727   0.819648

