%chk=/home/boittier/MDCM/nms_sampling/cyanomethane_geom.xyz.dir/cyanomethane_1133.chk
%nproc=8
%mem=16000MB
#p B2PLYPD3/Def2QZVP 

cyanomethane

0 1
C  -6.593160  -1.113123   1.175434
C  -5.200725  -0.796651   0.879620
N  -4.096024  -0.535323   0.715449
H  -6.759778  -1.223053   2.240036
H  -6.874953  -2.009516   0.680894
H  -7.257297  -0.346922   0.809859

