%chk=/home/boittier/MDCM/nms_sampling/cyanomethane_geom.xyz.dir/cyanomethane_1605.chk
%nproc=8
%mem=16000MB
#p B2PLYPD3/Def2QZVP 

cyanomethane

0 1
C  -6.587405  -1.123416   1.167108
C  -5.202329  -0.768264   0.911929
N  -4.098031  -0.548813   0.701521
H  -6.830028  -1.217457   2.242813
H  -6.848600  -2.029948   0.642250
H  -7.236790  -0.348403   0.756379
