%chk=/home/boittier/MDCM/nms_sampling/cyanomethane_geom.xyz.dir/cyanomethane_2669.chk
%nproc=8
%mem=16000MB
#p B2PLYPD3/Def2QZVP 

cyanomethane

0 1
C  -6.600097  -1.118382   1.153455
C  -5.209703  -0.834590   0.919623
N  -4.095096  -0.510216   0.696410
H  -6.699992  -1.185836   2.230338
H  -6.909718  -1.907022   0.696177
H  -7.104226  -0.308003   0.864148

