%chk=/home/boittier/MDCM/nms_sampling/cyanomethane_geom.xyz.dir/cyanomethane_311.chk
%nproc=8
%mem=16000MB
#p B2PLYPD3/Def2QZVP 

cyanomethane

0 1
C  -6.596611  -1.119320   1.164365
C  -5.202707  -0.796277   0.892378
N  -4.095437  -0.532796   0.710738
H  -6.767621  -1.207929   2.259618
H  -6.887052  -2.020339   0.700089
H  -7.179492  -0.314283   0.820202

