%chk=/home/boittier/MDCM/nms_sampling/cyanomethane_geom.xyz.dir/cyanomethane_36.chk
%nproc=8
%mem=16000MB
#p B2PLYPD3/Def2QZVP 

cyanomethane

0 1
C  -6.602552  -1.111574   1.171767
C  -5.202726  -0.796878   0.884521
N  -4.092000  -0.536464   0.714054
H  -6.747624  -1.210112   2.250841
H  -6.815458  -2.049532   0.694677
H  -7.247796  -0.322847   0.794583
