%chk=/home/boittier/MDCM/nms_sampling/cyanomethane_geom.xyz.dir/cyanomethane_2846.chk
%nproc=8
%mem=16000MB
#p B2PLYPD3/Def2QZVP 

cyanomethane

0 1
C  -6.600019  -1.134453   1.187924
C  -5.202328  -0.747891   0.893292
N  -4.105530  -0.563445   0.705342
H  -6.629857  -1.168939   2.190615
H  -6.726823  -2.075215   0.654720
H  -7.299275  -0.276348   0.712100

