%chk=/home/boittier/MDCM/nms_sampling/cyanomethane_geom.xyz.dir/cyanomethane_3372.chk
%nproc=8
%mem=16000MB
#p B2PLYPD3/Def2QZVP 

cyanomethane

0 1
C  -6.592814  -1.115719   1.187358
C  -5.192015  -0.810396   0.944590
N  -4.089059  -0.526207   0.677603
H  -6.724743  -1.191164   2.185063
H  -7.022633  -2.067598   0.534381
H  -7.351995  -0.228493   0.654339
