%chk=/home/boittier/MDCM/nms_sampling/cyanomethane_geom.xyz.dir/cyanomethane_979.chk
%nproc=8
%mem=16000MB
#p B2PLYPD3/Def2QZVP 

cyanomethane

0 1
C  -6.596733  -1.118680   1.174020
C  -5.198238  -0.794153   0.881522
N  -4.091909  -0.536352   0.715866
H  -6.804352  -1.199771   2.244046
H  -6.869906  -2.023610   0.684477
H  -7.261805  -0.308336   0.796504
