%chk=/home/boittier/MDCM/nms_sampling/cyanomethane_geom.xyz.dir/cyanomethane_1693.chk
%nproc=8
%mem=16000MB
#p B2PLYPD3/Def2QZVP 

cyanomethane

0 1
C  -6.603590  -1.104483   1.166329
C  -5.197549  -0.800752   0.894085
N  -4.093582  -0.533861   0.711816
H  -6.815413  -1.235869   2.258787
H  -6.814414  -2.070825   0.680136
H  -7.209625  -0.342575   0.788258
