%chk=/home/boittier/MDCM/nms_sampling/cyanomethane_geom.xyz.dir/cyanomethane_318.chk
%nproc=8
%mem=16000MB
#p B2PLYPD3/Def2QZVP 

cyanomethane

0 1
C  -6.599086  -1.116412   1.169727
C  -5.200433  -0.785027   0.915713
N  -4.089341  -0.539779   0.696057
H  -6.739540  -1.247456   2.228542
H  -6.914092  -2.033673   0.628326
H  -7.263931  -0.318050   0.785269
