%chk=/home/boittier/MDCM/nms_sampling/cyanomethane_geom.xyz.dir/cyanomethane_3325.chk
%nproc=8
%mem=16000MB
#p B2PLYPD3/Def2QZVP 

cyanomethane

0 1
C  -6.594790  -1.090045   1.153896
C  -5.194486  -0.799991   0.967468
N  -4.086882  -0.538058   0.665313
H  -6.654838  -1.282031   2.164929
H  -6.942104  -2.068686   0.669701
H  -7.479104  -0.396424   0.793467
