%chk=/home/boittier/MDCM/nms_sampling/cyanomethane_geom.xyz.dir/cyanomethane_2339.chk
%nproc=8
%mem=16000MB
#p B2PLYPD3/Def2QZVP 

cyanomethane

0 1
C  -6.607052  -1.121695   1.171141
C  -5.196825  -0.820216   0.904219
N  -4.092233  -0.519211   0.704620
H  -6.771626  -1.142741   2.196721
H  -6.902614  -2.014233   0.696624
H  -7.149344  -0.262899   0.766161

