%chk=/home/boittier/MDCM/nms_sampling/cyanomethane_geom.xyz.dir/cyanomethane_968.chk
%nproc=8
%mem=16000MB
#p B2PLYPD3/Def2QZVP 

cyanomethane

0 1
C  -6.595959  -1.108225   1.160298
C  -5.198582  -0.794110   0.927311
N  -4.093075  -0.537505   0.690285
H  -6.724504  -1.245387   2.229831
H  -6.884717  -2.041755   0.662948
H  -7.316620  -0.334474   0.801137

