%chk=/home/boittier/MDCM/nms_sampling/cyanomethane_geom.xyz.dir/cyanomethane_2891.chk
%nproc=8
%mem=16000MB
#p B2PLYPD3/Def2QZVP 

cyanomethane

0 1
C  -6.623000  -1.123561   1.174369
C  -5.198983  -0.750660   0.894187
N  -4.078343  -0.558108   0.702730
H  -6.612707  -1.248415   2.166940
H  -6.911980  -2.089267   0.731311
H  -7.270915  -0.343158   0.823023
