%chk=/home/boittier/MDCM/nms_sampling/cyanomethane_geom.xyz.dir/cyanomethane_5.chk
%nproc=8
%mem=16000MB
#p B2PLYPD3/Def2QZVP 

cyanomethane

0 1
C  -6.588653  -1.120379   1.166305
C  -5.203906  -0.770170   0.903262
N  -4.098145  -0.549254   0.703018
H  -6.738270  -1.241057   2.227549
H  -6.852991  -2.033475   0.678603
H  -7.286262  -0.331641   0.816797

