%chk=/home/boittier/MDCM/nms_sampling/cyanomethane_geom.xyz.dir/cyanomethane_1575.chk
%nproc=8
%mem=16000MB
#p B2PLYPD3/Def2QZVP 

cyanomethane

0 1
C  -6.597742  -1.114895   1.159873
C  -5.203734  -0.825809   0.913250
N  -4.100692  -0.519448   0.700953
H  -6.737953  -1.150129   2.238666
H  -6.813197  -2.001461   0.707621
H  -7.185102  -0.280425   0.789197

