%chk=/home/boittier/MDCM/nms_sampling/cyanomethane_geom.xyz.dir/cyanomethane_1434.chk
%nproc=8
%mem=16000MB
#p B2PLYPD3/Def2QZVP 

cyanomethane

0 1
C  -6.599075  -1.112373   1.156420
C  -5.199882  -0.819476   0.916821
N  -4.097493  -0.518283   0.699635
H  -6.774704  -1.226298   2.280940
H  -6.926785  -2.022335   0.657195
H  -7.109437  -0.287903   0.814908

