%chk=/home/boittier/MDCM/nms_sampling/cyanomethane_geom.xyz.dir/cyanomethane_1136.chk
%nproc=8
%mem=16000MB
#p B2PLYPD3/Def2QZVP 

cyanomethane

0 1
C  -6.593129  -1.111883   1.165909
C  -5.203465  -0.789761   0.924997
N  -4.094702  -0.537235   0.691563
H  -6.725480  -1.246446   2.215218
H  -6.910883  -2.063197   0.646622
H  -7.241060  -0.320452   0.778779

