%chk=/home/boittier/MDCM/nms_sampling/cyanomethane_geom.xyz.dir/cyanomethane_1230.chk
%nproc=8
%mem=16000MB
#p B2PLYPD3/Def2QZVP 

cyanomethane

0 1
C  -6.593703  -1.116095   1.161416
C  -5.207488  -0.791738   0.880626
N  -4.099405  -0.537634   0.719200
H  -6.793710  -1.211060   2.288119
H  -6.787142  -2.034392   0.719333
H  -7.176056  -0.329357   0.828691

