%chk=/home/boittier/MDCM/nms_sampling/cyanomethane_geom.xyz.dir/cyanomethane_2.chk
%nproc=8
%mem=16000MB
#p B2PLYPD3/Def2QZVP 

cyanomethane

0 1
C  -6.590270  -1.117100   1.168967
C  -5.204830  -0.790251   0.922678
N  -4.095644  -0.538419   0.691790
H  -6.705608  -1.187386   2.233383
H  -6.890982  -2.038022   0.657562
H  -7.287382  -0.331429   0.738375

