%chk=/home/boittier/MDCM/nms_sampling/cyanomethane_geom.xyz.dir/cyanomethane_3056.chk
%nproc=8
%mem=16000MB
#p B2PLYPD3/Def2QZVP 

cyanomethane

0 1
C  -6.574295  -1.112976   1.133156
C  -5.203276  -0.773150   0.985446
N  -4.106227  -0.547714   0.665469
H  -6.812101  -1.234204   2.315019
H  -6.839750  -2.065695   0.623633
H  -7.299282  -0.357168   0.739138
