%chk=/home/boittier/MDCM/nms_sampling/cyanomethane_geom.xyz.dir/cyanomethane_91.chk
%nproc=8
%mem=16000MB
#p B2PLYPD3/Def2QZVP 

cyanomethane

0 1
C  -6.603449  -1.114350   1.158020
C  -5.201872  -0.790367   0.894064
N  -4.090605  -0.538652   0.711204
H  -6.787528  -1.232298   2.252346
H  -6.817136  -2.031923   0.720309
H  -7.224514  -0.326673   0.850515

