%chk=/home/boittier/MDCM/nms_sampling/cyanomethane_geom.xyz.dir/cyanomethane_283.chk
%nproc=8
%mem=16000MB
#p B2PLYPD3/Def2QZVP 

cyanomethane

0 1
C  -6.599982  -1.102998   1.167676
C  -5.201194  -0.811503   0.912553
N  -4.094276  -0.527953   0.700199
H  -6.756662  -1.231149   2.224307
H  -6.844872  -2.077420   0.660563
H  -7.227143  -0.305645   0.773572
