%chk=/home/boittier/MDCM/nms_sampling/cyanomethane_geom.xyz.dir/cyanomethane_1319.chk
%nproc=8
%mem=16000MB
#p B2PLYPD3/Def2QZVP 

cyanomethane

0 1
C  -6.612207  -1.124922   1.153070
C  -5.196423  -0.780788   0.947777
N  -4.090604  -0.540105   0.679448
H  -6.678304  -1.206592   2.180300
H  -6.902426  -1.989193   0.690853
H  -7.208994  -0.344195   0.807114
