%chk=/home/boittier/MDCM/nms_sampling/cyanomethane_geom.xyz.dir/cyanomethane_1463.chk
%nproc=8
%mem=16000MB
#p B2PLYPD3/Def2QZVP 

cyanomethane

0 1
C  -6.610059  -1.114621   1.147383
C  -5.196332  -0.789664   0.946438
N  -4.089971  -0.538658   0.683548
H  -6.749415  -1.205661   2.244785
H  -6.832774  -2.042842   0.689138
H  -7.245212  -0.334255   0.782767

