%chk=/home/boittier/MDCM/nms_sampling/cyanomethane_geom.xyz.dir/cyanomethane_1049.chk
%nproc=8
%mem=16000MB
#p B2PLYPD3/Def2QZVP 

cyanomethane

0 1
C  -6.605251  -1.115872   1.168881
C  -5.198397  -0.781008   0.905387
N  -4.090657  -0.544780   0.702413
H  -6.738322  -1.227207   2.235470
H  -6.821827  -2.042408   0.662483
H  -7.289538  -0.325185   0.785988

