%chk=/home/boittier/MDCM/nms_sampling/cyanomethane_geom.xyz.dir/cyanomethane_247.chk
%nproc=8
%mem=16000MB
#p B2PLYPD3/Def2QZVP 

cyanomethane

0 1
C  -6.599412  -1.116531   1.160183
C  -5.202469  -0.788390   0.927310
N  -4.092131  -0.537377   0.692661
H  -6.764465  -1.223935   2.239440
H  -6.880199  -2.046791   0.654493
H  -7.206022  -0.320940   0.774789
