%chk=/home/boittier/MDCM/nms_sampling/cyanomethane_geom.xyz.dir/cyanomethane_2220.chk
%nproc=8
%mem=16000MB
#p B2PLYPD3/Def2QZVP 

cyanomethane

0 1
C  -6.606288  -1.108906   1.149273
C  -5.200363  -0.775767   0.939509
N  -4.090141  -0.544437   0.687503
H  -6.768905  -1.294511   2.244189
H  -6.854981  -2.067529   0.652479
H  -7.196984  -0.360426   0.818694

