%chk=/home/boittier/MDCM/nms_sampling/cyanomethane_geom.xyz.dir/cyanomethane_3531.chk
%nproc=8
%mem=16000MB
#p B2PLYPD3/Def2QZVP 

cyanomethane

0 1
C  -6.599204  -1.114806   1.145677
C  -5.204115  -0.748745   0.922746
N  -4.100250  -0.562356   0.693967
H  -6.676605  -1.291622   2.262995
H  -6.762564  -2.063427   0.716374
H  -7.279686  -0.383905   0.866347
