%chk=/home/boittier/MDCM/nms_sampling/cyanomethane_geom.xyz.dir/cyanomethane_3562.chk
%nproc=8
%mem=16000MB
#p B2PLYPD3/Def2QZVP 

cyanomethane

0 1
C  -6.628436  -1.101222   1.141144
C  -5.196727  -0.857273   0.931065
N  -4.078487  -0.501326   0.693863
H  -6.777316  -1.197748   2.189937
H  -6.854388  -1.896543   0.746428
H  -7.129965  -0.363441   0.898720

