%chk=/home/boittier/MDCM/nms_sampling/cyanomethane_geom.xyz.dir/cyanomethane_3434.chk
%nproc=8
%mem=16000MB
#p B2PLYPD3/Def2QZVP 

cyanomethane

0 1
C  -6.594618  -1.107105   1.167518
C  -5.200388  -0.743618   0.885294
N  -4.080836  -0.566282   0.710983
H  -6.776122  -1.366454   2.277380
H  -6.889088  -2.104633   0.648900
H  -7.423692  -0.365868   0.870722

