%chk=/home/boittier/MDCM/nms_sampling/cyanomethane_geom.xyz.dir/cyanomethane_875.chk
%nproc=8
%mem=16000MB
#p B2PLYPD3/Def2QZVP 

cyanomethane

0 1
C  -6.587802  -1.114999   1.158101
C  -5.202702  -0.796256   0.921983
N  -4.099196  -0.535496   0.696513
H  -6.796125  -1.206964   2.252934
H  -6.837857  -2.020325   0.666613
H  -7.256113  -0.321694   0.785469

