%chk=/home/boittier/MDCM/nms_sampling/cyanomethane_geom.xyz.dir/cyanomethane_2687.chk
%nproc=8
%mem=16000MB
#p B2PLYPD3/Def2QZVP 

cyanomethane

0 1
C  -6.605959  -1.119001   1.170436
C  -5.197027  -0.778617   0.841446
N  -4.083477  -0.541195   0.738740
H  -6.866413  -1.296691   2.295873
H  -6.917727  -2.053004   0.706422
H  -7.169619  -0.294170   0.913857

