%chk=/home/boittier/MDCM/nms_sampling/cyanomethane_geom.xyz.dir/cyanomethane_2704.chk
%nproc=8
%mem=16000MB
#p B2PLYPD3/Def2QZVP 

cyanomethane

0 1
C  -6.582316  -1.088705   1.161156
C  -5.205521  -0.790341   0.980330
N  -4.109235  -0.541471   0.662658
H  -6.663580  -1.312730   2.164888
H  -6.816952  -2.178126   0.577438
H  -7.300462  -0.324861   0.707676

