%chk=/home/boittier/MDCM/nms_sampling/cyanomethane_geom.xyz.dir/cyanomethane_2232.chk
%nproc=8
%mem=16000MB
#p B2PLYPD3/Def2QZVP 

cyanomethane

0 1
C  -6.597288  -1.110647   1.178099
C  -5.196907  -0.794499   0.866075
N  -4.090419  -0.537000   0.721196
H  -6.758395  -1.222417   2.260274
H  -6.913647  -2.019192   0.702611
H  -7.294538  -0.376475   0.811517
