%chk=/home/boittier/MDCM/nms_sampling/cyanomethane_geom.xyz.dir/cyanomethane_3078.chk
%nproc=8
%mem=16000MB
#p B2PLYPD3/Def2QZVP 

cyanomethane

0 1
C  -6.611049  -1.106912   1.172113
C  -5.201246  -0.751477   0.897056
N  -4.084379  -0.564401   0.708652
H  -6.788334  -1.253564   2.279354
H  -6.715934  -2.132628   0.652427
H  -7.330985  -0.398949   0.721211
