%chk=/home/boittier/MDCM/nms_sampling/cyanomethane_geom.xyz.dir/cyanomethane_1380.chk
%nproc=8
%mem=16000MB
#p B2PLYPD3/Def2QZVP 

cyanomethane

0 1
C  -6.590907  -1.135718   1.161832
C  -5.208514  -0.759517   0.896555
N  -4.098733  -0.552503   0.708726
H  -6.759363  -1.170152   2.242377
H  -6.827917  -2.054785   0.738054
H  -7.198096  -0.293247   0.798254
