%chk=/home/boittier/MDCM/nms_sampling/cyanomethane_geom.xyz.dir/cyanomethane_3507.chk
%nproc=8
%mem=16000MB
#p B2PLYPD3/Def2QZVP 

cyanomethane

0 1
C  -6.602199  -1.096420   1.177026
C  -5.200228  -0.762609   0.896346
N  -4.082872  -0.559939   0.708479
H  -6.820816  -1.278912   2.242886
H  -6.758545  -2.200420   0.651374
H  -7.393703  -0.357975   0.717872

