%chk=/home/boittier/MDCM/nms_sampling/cyanomethane_geom.xyz.dir/cyanomethane_1630.chk
%nproc=8
%mem=16000MB
#p B2PLYPD3/Def2QZVP 

cyanomethane

0 1
C  -6.599327  -1.126853   1.156896
C  -5.196513  -0.771308   0.923286
N  -4.091181  -0.545028   0.692268
H  -6.734972  -1.211311   2.245078
H  -6.952299  -2.015622   0.693859
H  -7.248507  -0.343506   0.806116
