%chk=/home/boittier/MDCM/nms_sampling/cyanomethane_geom.xyz.dir/cyanomethane_2486.chk
%nproc=8
%mem=16000MB
#p B2PLYPD3/Def2QZVP 

cyanomethane

0 1
C  -6.571643  -1.102814   1.175770
C  -5.212490  -0.766010   0.869770
N  -4.100664  -0.557864   0.720950
H  -6.786553  -1.241680   2.278800
H  -6.769410  -2.097270   0.707898
H  -7.390243  -0.425499   0.767987
