%chk=/home/boittier/MDCM/nms_sampling/cyanomethane_geom.xyz.dir/cyanomethane_1521.chk
%nproc=8
%mem=16000MB
#p B2PLYPD3/Def2QZVP 

cyanomethane

0 1
C  -6.582870  -1.111699   1.151115
C  -5.203927  -0.794501   0.944009
N  -4.101448  -0.535986   0.684011
H  -6.760347  -1.226725   2.252758
H  -6.872276  -2.025783   0.657194
H  -7.271112  -0.340207   0.786387
