%chk=/home/boittier/MDCM/nms_sampling/cyanomethane_geom.xyz.dir/cyanomethane_3521.chk
%nproc=8
%mem=16000MB
#p B2PLYPD3/Def2QZVP 

cyanomethane

0 1
C  -6.590762  -1.100617   1.173517
C  -5.203336  -0.747400   0.913686
N  -4.089290  -0.566810   0.698942
H  -6.810225  -1.300038   2.223789
H  -6.777281  -2.203451   0.632538
H  -7.395840  -0.359195   0.718967
