%chk=/home/boittier/MDCM/nms_sampling/cyanomethane_geom.xyz.dir/cyanomethane_1826.chk
%nproc=8
%mem=16000MB
#p B2PLYPD3/Def2QZVP 

cyanomethane

0 1
C  -6.595091  -1.124209   1.173601
C  -5.205945  -0.755939   0.891816
N  -4.098241  -0.557680   0.708420
H  -6.702264  -1.206955   2.257480
H  -6.801432  -2.079148   0.683707
H  -7.270935  -0.337522   0.756862

