%chk=/home/boittier/MDCM/nms_sampling/cyanomethane_geom.xyz.dir/cyanomethane_2862.chk
%nproc=8
%mem=16000MB
#p B2PLYPD3/Def2QZVP 

cyanomethane

0 1
C  -6.588943  -1.104869   1.144874
C  -5.204828  -0.794183   0.970594
N  -4.109450  -0.535556   0.670426
H  -6.697512  -1.294731   2.115723
H  -6.812690  -2.051750   0.671372
H  -7.193556  -0.316560   0.849271
