%chk=/home/boittier/MDCM/nms_sampling/cyanomethane_geom.xyz.dir/cyanomethane_3332.chk
%nproc=8
%mem=16000MB
#p B2PLYPD3/Def2QZVP 

cyanomethane

0 1
C  -6.625319  -1.102646   1.137447
C  -5.196347  -0.842834   0.917641
N  -4.078609  -0.509366   0.701168
H  -6.790880  -1.190634   2.244245
H  -6.862526  -1.951520   0.789534
H  -7.148091  -0.369102   0.898023
