%chk=/home/boittier/MDCM/nms_sampling/cyanomethane_geom.xyz.dir/cyanomethane_1085.chk
%nproc=8
%mem=16000MB
#p B2PLYPD3/Def2QZVP 

cyanomethane

0 1
C  -6.599312  -1.108429   1.169081
C  -5.200101  -0.802149   0.887532
N  -4.095131  -0.532674   0.713664
H  -6.780301  -1.252579   2.247088
H  -6.831836  -2.045262   0.669169
H  -7.225100  -0.302571   0.828913

