%chk=/home/boittier/MDCM/nms_sampling/cyanomethane_geom.xyz.dir/cyanomethane_1946.chk
%nproc=8
%mem=16000MB
#p B2PLYPD3/Def2QZVP 

cyanomethane

0 1
C  -6.587916  -1.108985   1.169733
C  -5.204048  -0.766294   0.899434
N  -4.094836  -0.551838   0.705906
H  -6.786092  -1.305673   2.226922
H  -6.859254  -2.078810   0.645164
H  -7.285502  -0.358844   0.815982

