%chk=/home/boittier/MDCM/nms_sampling/cyanomethane_geom.xyz.dir/cyanomethane_2676.chk
%nproc=8
%mem=16000MB
#p B2PLYPD3/Def2QZVP 

cyanomethane

0 1
C  -6.599643  -1.108929   1.165605
C  -5.202224  -0.814869   0.946793
N  -4.105407  -0.523746   0.675114
H  -6.533505  -1.219758   2.113906
H  -6.915728  -1.951268   0.676563
H  -7.215215  -0.377074   0.810391
