%chk=/home/boittier/MDCM/nms_sampling/cyanomethane_geom.xyz.dir/cyanomethane_569.chk
%nproc=8
%mem=16000MB
#p B2PLYPD3/Def2QZVP 

cyanomethane

0 1
C  -6.589731  -1.120107   1.161186
C  -5.203270  -0.784123   0.928644
N  -4.095950  -0.540350   0.690983
H  -6.761866  -1.189771   2.219307
H  -6.890830  -2.044395   0.682837
H  -7.251400  -0.330535   0.757824

