%chk=/home/boittier/MDCM/nms_sampling/cyanomethane_geom.xyz.dir/cyanomethane_3583.chk
%nproc=8
%mem=16000MB
#p B2PLYPD3/Def2QZVP 

cyanomethane

0 1
C  -6.603519  -1.120515   1.153104
C  -5.190073  -0.766974   0.891890
N  -4.085312  -0.556138   0.715338
H  -6.924192  -1.185807   2.326185
H  -6.730379  -2.006874   0.718542
H  -7.394343  -0.375064   0.802678

