%chk=/home/boittier/MDCM/nms_sampling/cyanomethane_geom.xyz.dir/cyanomethane_1905.chk
%nproc=8
%mem=16000MB
#p B2PLYPD3/Def2QZVP 

cyanomethane

0 1
C  -6.581346  -1.123659   1.166234
C  -5.204092  -0.772155   0.927621
N  -4.099519  -0.545950   0.686780
H  -6.669717  -1.236687   2.205477
H  -6.962757  -2.021674   0.653933
H  -7.311355  -0.320821   0.799424
