%chk=/home/boittier/MDCM/nms_sampling/cyanomethane_geom.xyz.dir/cyanomethane_1928.chk
%nproc=8
%mem=16000MB
#p B2PLYPD3/Def2QZVP 

cyanomethane

0 1
C  -6.602545  -1.113343   1.168145
C  -5.198971  -0.788827   0.936387
N  -4.095813  -0.538352   0.682655
H  -6.630105  -1.221234   2.162158
H  -6.908639  -2.071380   0.671477
H  -7.262658  -0.316939   0.763359
