%chk=/home/boittier/MDCM/nms_sampling/cyanomethane_geom.xyz.dir/cyanomethane_164.chk
%nproc=8
%mem=16000MB
#p B2PLYPD3/Def2QZVP 

cyanomethane

0 1
C  -6.593144  -1.103138   1.168875
C  -5.204397  -0.814829   0.916297
N  -4.094777  -0.525913   0.697900
H  -6.761747  -1.237522   2.238730
H  -6.864499  -2.044581   0.626299
H  -7.240643  -0.315043   0.768688

