%chk=/home/boittier/MDCM/nms_sampling/cyanomethane_geom.xyz.dir/cyanomethane_608.chk
%nproc=8
%mem=16000MB
#p B2PLYPD3/Def2QZVP 

cyanomethane

0 1
C  -6.593649  -1.107450   1.156923
C  -5.203420  -0.806754   0.917365
N  -4.097903  -0.528941   0.698795
H  -6.767548  -1.247521   2.242080
H  -6.857017  -2.053519   0.676330
H  -7.202426  -0.299078   0.825099

