%chk=/home/boittier/MDCM/nms_sampling/cyanomethane_geom.xyz.dir/cyanomethane_2483.chk
%nproc=8
%mem=16000MB
#p B2PLYPD3/Def2QZVP 

cyanomethane

0 1
C  -6.601632  -1.113148   1.160120
C  -5.206009  -0.840941   0.925219
N  -4.088576  -0.502251   0.695213
H  -6.797569  -1.242779   2.157937
H  -7.022170  -1.986857   0.658554
H  -7.007544  -0.250687   0.857896
