%chk=/home/boittier/MDCM/nms_sampling/cyanomethane_geom.xyz.dir/cyanomethane_2313.chk
%nproc=8
%mem=16000MB
#p B2PLYPD3/Def2QZVP 

cyanomethane

0 1
C  -6.594209  -1.121817   1.180847
C  -5.207587  -0.788896   0.864544
N  -4.096916  -0.537173   0.725172
H  -6.776871  -1.209103   2.292101
H  -6.848177  -2.053004   0.653792
H  -7.158828  -0.284662   0.777329
