%chk=/home/boittier/MDCM/nms_sampling/cyanomethane_geom.xyz.dir/cyanomethane_2020.chk
%nproc=8
%mem=16000MB
#p B2PLYPD3/Def2QZVP 

cyanomethane

0 1
C  -6.591667  -1.102137   1.176165
C  -5.207570  -0.829016   0.903443
N  -4.096742  -0.516467   0.702024
H  -6.696712  -1.252571   2.190548
H  -6.923365  -2.036038   0.639745
H  -7.195931  -0.281550   0.811036

