%chk=/home/boittier/MDCM/nms_sampling/cyanomethane_geom.xyz.dir/cyanomethane_2168.chk
%nproc=8
%mem=16000MB
#p B2PLYPD3/Def2QZVP 

cyanomethane

0 1
C  -6.609821  -1.125480   1.164604
C  -5.200196  -0.798081   0.889999
N  -4.086685  -0.530347   0.711396
H  -6.757529  -1.202583   2.241691
H  -6.909387  -1.967659   0.702020
H  -7.160216  -0.310650   0.849102

