%chk=/home/boittier/MDCM/nms_sampling/cyanomethane_geom.xyz.dir/cyanomethane_2467.chk
%nproc=8
%mem=16000MB
#p B2PLYPD3/Def2QZVP 

cyanomethane

0 1
C  -6.590089  -1.113943   1.207471
C  -5.195160  -0.788755   0.828675
N  -4.096510  -0.537785   0.740973
H  -6.825206  -1.227003   2.311743
H  -6.945004  -2.077814   0.595318
H  -7.219869  -0.335028   0.709810

