%chk=/home/boittier/MDCM/nms_sampling/cyanomethane_geom.xyz.dir/cyanomethane_423.chk
%nproc=8
%mem=16000MB
#p B2PLYPD3/Def2QZVP 

cyanomethane

0 1
C  -6.599939  -1.113667   1.171591
C  -5.199130  -0.801395   0.890240
N  -4.091392  -0.531829   0.710001
H  -6.754580  -1.220505   2.217365
H  -6.896940  -2.013373   0.690806
H  -7.241836  -0.327498   0.819057

