%chk=/home/boittier/MDCM/nms_sampling/cyanomethane_geom.xyz.dir/cyanomethane_2327.chk
%nproc=8
%mem=16000MB
#p B2PLYPD3/Def2QZVP 

cyanomethane

0 1
C  -6.606048  -1.125023   1.173848
C  -5.203170  -0.794628   0.880278
N  -4.090086  -0.533941   0.717209
H  -6.778291  -1.163115   2.232629
H  -6.850486  -2.017546   0.709335
H  -7.160702  -0.307053   0.782257
