%chk=/home/boittier/MDCM/nms_sampling/cyanomethane_geom.xyz.dir/cyanomethane_1243.chk
%nproc=8
%mem=16000MB
#p B2PLYPD3/Def2QZVP 

cyanomethane

0 1
C  -6.592282  -1.106144   1.151150
C  -5.202918  -0.833883   0.918434
N  -4.101624  -0.513647   0.698547
H  -6.750968  -1.201577   2.264952
H  -6.883600  -1.995735   0.706693
H  -7.164438  -0.313808   0.835503

