%chk=/home/boittier/MDCM/nms_sampling/cyanomethane_geom.xyz.dir/cyanomethane_3155.chk
%nproc=8
%mem=16000MB
#p B2PLYPD3/Def2QZVP 

cyanomethane

0 1
C  -6.584457  -1.121625   1.184986
C  -5.209066  -0.801642   0.856132
N  -4.099104  -0.527978   0.726980
H  -6.745980  -1.272878   2.228807
H  -6.946161  -2.017333   0.640665
H  -7.156808  -0.223367   0.876060

