%chk=/home/boittier/MDCM/nms_sampling/cyanomethane_geom.xyz.dir/cyanomethane_2735.chk
%nproc=8
%mem=16000MB
#p B2PLYPD3/Def2QZVP 

cyanomethane

0 1
C  -6.602376  -1.111454   1.167036
C  -5.199653  -0.784771   0.970066
N  -4.080098  -0.544251   0.666416
H  -6.723929  -1.192062   2.191470
H  -6.880289  -2.034431   0.588645
H  -7.416560  -0.366070   0.664329
