%chk=/home/boittier/MDCM/nms_sampling/cyanomethane_geom.xyz.dir/cyanomethane_2053.chk
%nproc=8
%mem=16000MB
#p B2PLYPD3/Def2QZVP 

cyanomethane

0 1
C  -6.593598  -1.097155   1.177268
C  -5.203152  -0.808655   0.884583
N  -4.102184  -0.531053   0.714383
H  -6.751456  -1.286097   2.204350
H  -6.793640  -2.072056   0.650036
H  -7.225214  -0.317142   0.819682
