%chk=/home/boittier/MDCM/nms_sampling/cyanomethane_geom.xyz.dir/cyanomethane_2796.chk
%nproc=8
%mem=16000MB
#p B2PLYPD3/Def2QZVP 

cyanomethane

0 1
C  -6.594649  -1.105215   1.138749
C  -5.205661  -0.813207   0.924471
N  -4.106695  -0.525149   0.697539
H  -6.745936  -1.274560   2.214627
H  -6.789894  -2.027492   0.742304
H  -7.127355  -0.296481   0.926630

