%chk=/home/boittier/MDCM/nms_sampling/cyanomethane_geom.xyz.dir/cyanomethane_1418.chk
%nproc=8
%mem=16000MB
#p B2PLYPD3/Def2QZVP 

cyanomethane

0 1
C  -6.591993  -1.122938   1.169495
C  -5.198701  -0.783526   0.887725
N  -4.095851  -0.538851   0.714671
H  -6.853840  -1.195280   2.280135
H  -6.902274  -2.028757   0.674323
H  -7.177751  -0.344644   0.767879
