%chk=/home/boittier/MDCM/nms_sampling/cyanomethane_geom.xyz.dir/cyanomethane_1348.chk
%nproc=8
%mem=16000MB
#p B2PLYPD3/Def2QZVP 

cyanomethane

0 1
C  -6.587509  -1.119558   1.149915
C  -5.205158  -0.772425   0.934171
N  -4.098156  -0.547378   0.688351
H  -6.745211  -1.255299   2.210647
H  -6.852335  -1.999818   0.687573
H  -7.279084  -0.348097   0.851794
