%chk=/home/boittier/MDCM/nms_sampling/cyanomethane_geom.xyz.dir/cyanomethane_1378.chk
%nproc=8
%mem=16000MB
#p B2PLYPD3/Def2QZVP 

cyanomethane

0 1
C  -6.601612  -1.121074   1.166949
C  -5.198648  -0.809356   0.909352
N  -4.094060  -0.524316   0.700769
H  -6.744037  -1.189779   2.231768
H  -6.933198  -1.990124   0.666784
H  -7.165393  -0.296817   0.794802

