%chk=/home/boittier/MDCM/nms_sampling/cyanomethane_geom.xyz.dir/cyanomethane_1145.chk
%nproc=8
%mem=16000MB
#p B2PLYPD3/Def2QZVP 

cyanomethane

0 1
C  -6.603105  -1.110156   1.166704
C  -5.201529  -0.793393   0.928005
N  -4.089778  -0.537381   0.691339
H  -6.743567  -1.238020   2.211572
H  -6.842824  -2.078625   0.633459
H  -7.263396  -0.290389   0.761277
