%chk=/home/boittier/MDCM/nms_sampling/cyanomethane_geom.xyz.dir/cyanomethane_3335.chk
%nproc=8
%mem=16000MB
#p B2PLYPD3/Def2QZVP 

cyanomethane

0 1
C  -6.610854  -1.102244   1.147908
C  -5.200650  -0.858965   0.917952
N  -4.082833  -0.503021   0.704785
H  -6.904645  -1.151308   2.275343
H  -6.789059  -1.988499   0.706592
H  -7.173495  -0.275536   0.804577
