%chk=/home/boittier/MDCM/nms_sampling/cyanomethane_geom.xyz.dir/cyanomethane_949.chk
%nproc=8
%mem=16000MB
#p B2PLYPD3/Def2QZVP 

cyanomethane

0 1
C  -6.605210  -1.111817   1.171103
C  -5.198580  -0.802258   0.906152
N  -4.091246  -0.530183   0.701517
H  -6.723003  -1.240440   2.221144
H  -6.909164  -2.055958   0.652365
H  -7.205998  -0.289687   0.796486
