%chk=/home/boittier/MDCM/nms_sampling/cyanomethane_geom.xyz.dir/cyanomethane_490.chk
%nproc=8
%mem=16000MB
#p B2PLYPD3/Def2QZVP 

cyanomethane

0 1
C  -6.600316  -1.118922   1.175475
C  -5.197745  -0.785867   0.885709
N  -4.090611  -0.540712   0.712653
H  -6.779453  -1.201182   2.220308
H  -6.872904  -2.036056   0.691884
H  -7.264198  -0.328343   0.784911

