%chk=/home/boittier/MDCM/nms_sampling/cyanomethane_geom.xyz.dir/cyanomethane_1705.chk
%nproc=8
%mem=16000MB
#p B2PLYPD3/Def2QZVP 

cyanomethane

0 1
C  -6.598690  -1.103323   1.167840
C  -5.199757  -0.806897   0.866410
N  -4.085786  -0.532578   0.724982
H  -6.833246  -1.245676   2.270073
H  -6.841398  -2.039282   0.719095
H  -7.304897  -0.333943   0.858236

