%chk=/home/boittier/MDCM/nms_sampling/cyanomethane_geom.xyz.dir/cyanomethane_2208.chk
%nproc=8
%mem=16000MB
#p B2PLYPD3/Def2QZVP 

cyanomethane

0 1
C  -6.601781  -1.115500   1.173346
C  -5.195384  -0.787219   0.928849
N  -4.090351  -0.538730   0.688449
H  -6.724819  -1.208433   2.231791
H  -6.933992  -2.076646   0.617130
H  -7.273973  -0.315096   0.707765

