%chk=/home/boittier/MDCM/nms_sampling/cyanomethane_geom.xyz.dir/cyanomethane_657.chk
%nproc=8
%mem=16000MB
#p B2PLYPD3/Def2QZVP 

cyanomethane

0 1
C  -6.600065  -1.114483   1.168788
C  -5.200473  -0.796374   0.913512
N  -4.088543  -0.535662   0.697360
H  -6.734194  -1.194225   2.224907
H  -6.888969  -2.053575   0.677481
H  -7.293223  -0.308839   0.762354

