%chk=/home/boittier/MDCM/nms_sampling/cyanomethane_geom.xyz.dir/cyanomethane_2539.chk
%nproc=8
%mem=16000MB
#p B2PLYPD3/Def2QZVP 

cyanomethane

0 1
C  -6.596053  -1.125865   1.187495
C  -5.202144  -0.711019   0.878722
N  -4.086233  -0.578227   0.712364
H  -6.740166  -1.324942   2.256261
H  -6.939218  -2.147076   0.604935
H  -7.294901  -0.363569   0.759168

