%chk=/home/boittier/MDCM/nms_sampling/cyanomethane_geom.xyz.dir/cyanomethane_2707.chk
%nproc=8
%mem=16000MB
#p B2PLYPD3/Def2QZVP 

cyanomethane

0 1
C  -6.601067  -1.123062   1.179626
C  -5.201704  -0.781566   0.948702
N  -4.082737  -0.543817   0.673853
H  -6.647580  -1.134706   2.187537
H  -6.938615  -2.003224   0.612489
H  -7.388122  -0.373525   0.639883
