%chk=/home/boittier/MDCM/nms_sampling/cyanomethane_geom.xyz.dir/cyanomethane_3322.chk
%nproc=8
%mem=16000MB
#p B2PLYPD3/Def2QZVP 

cyanomethane

0 1
C  -6.590380  -1.102879   1.174389
C  -5.210129  -0.849290   0.901267
N  -4.099245  -0.503051   0.704001
H  -6.684939  -1.247500   2.272683
H  -6.965076  -2.024916   0.597493
H  -7.117085  -0.231969   0.807162
