%chk=/home/boittier/MDCM/nms_sampling/cyanomethane_geom.xyz.dir/cyanomethane_1009.chk
%nproc=8
%mem=16000MB
#p B2PLYPD3/Def2QZVP 

cyanomethane

0 1
C  -6.593299  -1.115253   1.167296
C  -5.201152  -0.802497   0.905798
N  -4.096350  -0.528721   0.703191
H  -6.774543  -1.228982   2.237124
H  -6.926432  -2.007546   0.654379
H  -7.179867  -0.325978   0.802769
