%chk=/home/boittier/MDCM/nms_sampling/cyanomethane_geom.xyz.dir/cyanomethane_3512.chk
%nproc=8
%mem=16000MB
#p B2PLYPD3/Def2QZVP 

cyanomethane

0 1
C  -6.581690  -1.108000   1.166596
C  -5.204986  -0.782933   0.972717
N  -4.107871  -0.544678   0.666963
H  -6.686384  -1.259267   2.253961
H  -6.802411  -2.109747   0.506903
H  -7.328422  -0.267865   0.667560

