%chk=/home/boittier/MDCM/nms_sampling/cyanomethane_geom.xyz.dir/cyanomethane_641.chk
%nproc=8
%mem=16000MB
#p B2PLYPD3/Def2QZVP 

cyanomethane

0 1
C  -6.597877  -1.121664   1.173829
C  -5.203521  -0.783398   0.890682
N  -4.093322  -0.541986   0.710383
H  -6.754996  -1.200168   2.225499
H  -6.838208  -2.043298   0.682369
H  -7.245082  -0.299514   0.784148

