%chk=/home/boittier/MDCM/nms_sampling/cyanomethane_geom.xyz.dir/cyanomethane_192.chk
%nproc=8
%mem=16000MB
#p B2PLYPD3/Def2QZVP 

cyanomethane

0 1
C  -6.594614  -1.115153   1.179308
C  -5.205455  -0.793934   0.889920
N  -4.096516  -0.535971   0.710688
H  -6.749593  -1.215079   2.236631
H  -6.850132  -2.051048   0.643699
H  -7.210971  -0.307960   0.758944

