%chk=/home/boittier/MDCM/nms_sampling/cyanomethane_geom.xyz.dir/cyanomethane_1746.chk
%nproc=8
%mem=16000MB
#p B2PLYPD3/Def2QZVP 

cyanomethane

0 1
C  -6.603964  -1.122948   1.172520
C  -5.195242  -0.785945   0.937755
N  -4.089424  -0.539706   0.682769
H  -6.691010  -1.188178   2.203203
H  -6.921380  -2.053999   0.618693
H  -7.307897  -0.270919   0.717631
