%chk=/home/boittier/MDCM/nms_sampling/cyanomethane_geom.xyz.dir/cyanomethane_3401.chk
%nproc=8
%mem=16000MB
#p B2PLYPD3/Def2QZVP 

cyanomethane

0 1
C  -6.589761  -1.117695   1.203216
C  -5.211367  -0.786360   0.825334
N  -4.099672  -0.538271   0.744214
H  -6.774056  -1.225952   2.269430
H  -6.860540  -2.142336   0.648431
H  -7.115769  -0.250908   0.746464

