%chk=/home/boittier/MDCM/nms_sampling/cyanomethane_geom.xyz.dir/cyanomethane_2658.chk
%nproc=8
%mem=16000MB
#p B2PLYPD3/Def2QZVP 

cyanomethane

0 1
C  -6.563969  -1.101828   1.156490
C  -5.212668  -0.840555   0.915614
N  -4.103664  -0.506559   0.701452
H  -6.867336  -1.225505   2.237900
H  -7.009644  -2.035202   0.688850
H  -7.115794  -0.312451   0.817674
