%chk=/home/boittier/MDCM/nms_sampling/cyanomethane_geom.xyz.dir/cyanomethane_599.chk
%nproc=8
%mem=16000MB
#p B2PLYPD3/Def2QZVP 

cyanomethane

0 1
C  -6.591031  -1.111862   1.166213
C  -5.204979  -0.786159   0.920889
N  -4.096761  -0.541743   0.695138
H  -6.749802  -1.238087   2.237218
H  -6.828816  -2.065346   0.636465
H  -7.278305  -0.312147   0.766005

