%chk=/home/boittier/MDCM/nms_sampling/cyanomethane_geom.xyz.dir/cyanomethane_2449.chk
%nproc=8
%mem=16000MB
#p B2PLYPD3/Def2QZVP 

cyanomethane

0 1
C  -6.598226  -1.118371   1.151163
C  -5.197962  -0.746391   0.923530
N  -4.077931  -0.561986   0.698153
H  -6.923922  -1.284347   2.303529
H  -6.861279  -2.140120   0.646711
H  -7.331829  -0.302560   0.789038
