%chk=/home/boittier/MDCM/nms_sampling/cyanomethane_geom.xyz.dir/cyanomethane_2717.chk
%nproc=8
%mem=16000MB
#p B2PLYPD3/Def2QZVP 

cyanomethane

0 1
C  -6.606316  -1.103677   1.164129
C  -5.196211  -0.815019   0.847066
N  -4.080751  -0.528267   0.739604
H  -6.962938  -1.228250   2.285024
H  -6.788349  -1.937707   0.741273
H  -7.252301  -0.419205   0.888555
