%chk=/home/boittier/MDCM/nms_sampling/cyanomethane_geom.xyz.dir/cyanomethane_1604.chk
%nproc=8
%mem=16000MB
#p B2PLYPD3/Def2QZVP 

cyanomethane

0 1
C  -6.599787  -1.110575   1.150883
C  -5.199743  -0.787939   0.942918
N  -4.085832  -0.538823   0.685929
H  -6.818038  -1.286389   2.233862
H  -6.878968  -2.036019   0.625772
H  -7.270031  -0.312169   0.826369
