%chk=/home/boittier/MDCM/nms_sampling/cyanomethane_geom.xyz.dir/cyanomethane_1554.chk
%nproc=8
%mem=16000MB
#p B2PLYPD3/Def2QZVP 

cyanomethane

0 1
C  -6.598322  -1.113789   1.176457
C  -5.202156  -0.755154   0.902251
N  -4.088487  -0.556386   0.701317
H  -6.717440  -1.298032   2.248646
H  -6.911519  -2.080177   0.613246
H  -7.288874  -0.375909   0.773734
