%chk=/home/boittier/MDCM/nms_sampling/cyanomethane_geom.xyz.dir/cyanomethane_2845.chk
%nproc=8
%mem=16000MB
#p B2PLYPD3/Def2QZVP 

cyanomethane

0 1
C  -6.629116  -1.119111   1.169508
C  -5.188026  -0.819158   0.911322
N  -4.083252  -0.515113   0.703104
H  -6.810540  -1.170903   2.264660
H  -6.970818  -2.069899   0.643305
H  -7.009073  -0.268220   0.719952

