%chk=/home/boittier/MDCM/nms_sampling/cyanomethane_geom.xyz.dir/cyanomethane_3115.chk
%nproc=8
%mem=16000MB
#p B2PLYPD3/Def2QZVP 

cyanomethane

0 1
C  -6.598096  -1.112454   1.147576
C  -5.190826  -0.793238   0.964821
N  -4.086418  -0.538896   0.675276
H  -6.869991  -1.184496   2.201859
H  -6.854480  -2.012348   0.668694
H  -7.364998  -0.362741   0.743614
