%chk=/home/boittier/MDCM/nms_sampling/cyanomethane_geom.xyz.dir/cyanomethane_3363.chk
%nproc=8
%mem=16000MB
#p B2PLYPD3/Def2QZVP 

cyanomethane

0 1
C  -6.602259  -1.147676   1.154006
C  -5.201613  -0.733611   0.911943
N  -4.098994  -0.563336   0.697493
H  -6.668630  -1.206591   2.221941
H  -6.873279  -1.941053   0.730666
H  -7.186734  -0.372787   0.865420

