%chk=/home/boittier/MDCM/nms_sampling/cyanomethane_geom.xyz.dir/cyanomethane_1498.chk
%nproc=8
%mem=16000MB
#p B2PLYPD3/Def2QZVP 

cyanomethane

0 1
C  -6.598936  -1.107674   1.155118
C  -5.199083  -0.803051   0.939121
N  -4.088186  -0.533105   0.684470
H  -6.731778  -1.232502   2.233268
H  -6.886020  -1.989530   0.657347
H  -7.336224  -0.358585   0.805293

