%chk=/home/boittier/MDCM/nms_sampling/cyanomethane_geom.xyz.dir/cyanomethane_1509.chk
%nproc=8
%mem=16000MB
#p B2PLYPD3/Def2QZVP 

cyanomethane

0 1
C  -6.582088  -1.132218   1.162072
C  -5.202915  -0.766480   0.904234
N  -4.101317  -0.550244   0.704985
H  -6.810078  -1.173549   2.241412
H  -6.843042  -2.017380   0.707822
H  -7.271759  -0.313995   0.789774
