%chk=/home/boittier/MDCM/nms_sampling/cyanomethane_geom.xyz.dir/cyanomethane_1155.chk
%nproc=8
%mem=16000MB
#p B2PLYPD3/Def2QZVP 

cyanomethane

0 1
C  -6.600841  -1.112736   1.172831
C  -5.201958  -0.807559   0.905624
N  -4.091210  -0.528647   0.702270
H  -6.741534  -1.186439   2.226095
H  -6.884896  -2.040065   0.669223
H  -7.225942  -0.316127   0.752528

