%chk=/home/boittier/MDCM/nms_sampling/cyanomethane_geom.xyz.dir/cyanomethane_1210.chk
%nproc=8
%mem=16000MB
#p B2PLYPD3/Def2QZVP 

cyanomethane

0 1
C  -6.600034  -1.105674   1.155351
C  -5.201430  -0.827370   0.906946
N  -4.097861  -0.518213   0.704202
H  -6.745862  -1.218068   2.255454
H  -6.850364  -1.996578   0.706291
H  -7.179358  -0.318311   0.849364
