%chk=/home/boittier/MDCM/nms_sampling/cyanomethane_geom.xyz.dir/cyanomethane_1696.chk
%nproc=8
%mem=16000MB
#p B2PLYPD3/Def2QZVP 

cyanomethane

0 1
C  -6.596488  -1.115591   1.176305
C  -5.206435  -0.813994   0.893188
N  -4.096740  -0.524676   0.708522
H  -6.715508  -1.159609   2.200663
H  -6.873461  -2.057393   0.708107
H  -7.182530  -0.278059   0.760757
