%chk=/home/boittier/MDCM/nms_sampling/cyanomethane_geom.xyz.dir/cyanomethane_2421.chk
%nproc=8
%mem=16000MB
#p B2PLYPD3/Def2QZVP 

cyanomethane

0 1
C  -6.589280  -1.115416   1.171430
C  -5.200867  -0.764437   0.897255
N  -4.100970  -0.555081   0.702476
H  -6.650933  -1.281280   2.247219
H  -6.838255  -1.999893   0.645587
H  -7.379202  -0.369673   0.837823
