%chk=/home/boittier/MDCM/nms_sampling/cyanomethane_geom.xyz.dir/cyanomethane_2994.chk
%nproc=8
%mem=16000MB
#p B2PLYPD3/Def2QZVP 

cyanomethane

0 1
C  -6.599283  -1.106072   1.159114
C  -5.199879  -0.805364   0.854879
N  -4.080622  -0.532149   0.734601
H  -6.951719  -1.245120   2.271612
H  -6.833435  -1.926558   0.755087
H  -7.260056  -0.440803   0.914522
