%chk=/home/boittier/MDCM/nms_sampling/cyanomethane_geom.xyz.dir/cyanomethane_2195.chk
%nproc=8
%mem=16000MB
#p B2PLYPD3/Def2QZVP 

cyanomethane

0 1
C  -6.597038  -1.101661   1.171507
C  -5.206389  -0.783381   0.924883
N  -4.095651  -0.545010   0.692424
H  -6.716403  -1.278886   2.193429
H  -6.783997  -2.128810   0.621845
H  -7.281408  -0.310703   0.752041

