%chk=/home/boittier/MDCM/nms_sampling/cyanomethane_geom.xyz.dir/cyanomethane_3151.chk
%nproc=8
%mem=16000MB
#p B2PLYPD3/Def2QZVP 

cyanomethane

0 1
C  -6.602338  -1.103134   1.149543
C  -5.190606  -0.827297   0.870810
N  -4.084375  -0.519404   0.727620
H  -6.965126  -1.203471   2.276421
H  -6.873810  -1.945266   0.793182
H  -7.228646  -0.416640   0.902449
