%chk=/home/boittier/MDCM/nms_sampling/cyanomethane_geom.xyz.dir/cyanomethane_2088.chk
%nproc=8
%mem=16000MB
#p B2PLYPD3/Def2QZVP 

cyanomethane

0 1
C  -6.594286  -1.107326   1.182114
C  -5.207222  -0.830005   0.905727
N  -4.098012  -0.514712   0.702099
H  -6.721506  -1.207344   2.184349
H  -6.910338  -2.070008   0.626661
H  -7.139180  -0.246918   0.744046

