%chk=/home/boittier/MDCM/nms_sampling/cyanomethane_geom.xyz.dir/cyanomethane_1183.chk
%nproc=8
%mem=16000MB
#p B2PLYPD3/Def2QZVP 

cyanomethane

0 1
C  -6.592100  -1.116711   1.175701
C  -5.201909  -0.778239   0.899059
N  -4.097473  -0.544492   0.705362
H  -6.751314  -1.228586   2.247278
H  -6.866581  -2.063230   0.639609
H  -7.252770  -0.328823   0.753974

