%chk=/home/boittier/MDCM/nms_sampling/cyanomethane_geom.xyz.dir/cyanomethane_2212.chk
%nproc=8
%mem=16000MB
#p B2PLYPD3/Def2QZVP 

cyanomethane

0 1
C  -6.587119  -1.118036   1.152574
C  -5.204533  -0.756432   0.910171
N  -4.095910  -0.556616   0.703425
H  -6.830826  -1.294173   2.256078
H  -6.814177  -2.048619   0.677666
H  -7.274878  -0.344335   0.861229
