%chk=/home/boittier/MDCM/nms_sampling/cyanomethane_geom.xyz.dir/cyanomethane_3543.chk
%nproc=8
%mem=16000MB
#p B2PLYPD3/Def2QZVP 

cyanomethane

0 1
C  -6.589408  -1.093794   1.181283
C  -5.195067  -0.862810   0.902739
N  -4.092197  -0.502042   0.704895
H  -6.822142  -1.195885   2.264065
H  -6.930197  -2.046615   0.587773
H  -7.309040  -0.235318   0.726987
