%chk=/home/boittier/MDCM/nms_sampling/cyanomethane_geom.xyz.dir/cyanomethane_655.chk
%nproc=8
%mem=16000MB
#p B2PLYPD3/Def2QZVP 

cyanomethane

0 1
C  -6.603325  -1.108311   1.163048
C  -5.202498  -0.811642   0.911095
N  -4.091592  -0.526164   0.702532
H  -6.786821  -1.219112   2.237951
H  -6.847380  -2.042801   0.670234
H  -7.176439  -0.312872   0.789722
