%chk=/home/boittier/MDCM/nms_sampling/cyanomethane_geom.xyz.dir/cyanomethane_784.chk
%nproc=8
%mem=16000MB
#p B2PLYPD3/Def2QZVP 

cyanomethane

0 1
C  -6.596145  -1.106122   1.170560
C  -5.201238  -0.813466   0.907214
N  -4.090693  -0.527700   0.702096
H  -6.774415  -1.209840   2.215874
H  -6.864342  -2.033408   0.665838
H  -7.286295  -0.318877   0.776452
