%chk=/home/boittier/MDCM/nms_sampling/cyanomethane_geom.xyz.dir/cyanomethane_2999.chk
%nproc=8
%mem=16000MB
#p B2PLYPD3/Def2QZVP 

cyanomethane

0 1
C  -6.602007  -1.092163   1.168404
C  -5.198231  -0.806504   0.968890
N  -4.080958  -0.533353   0.669537
H  -6.778008  -1.279138   2.230859
H  -6.871431  -2.078294   0.509729
H  -7.381823  -0.342971   0.675583
