%chk=/home/boittier/MDCM/nms_sampling/cyanomethane_geom.xyz.dir/cyanomethane_1846.chk
%nproc=8
%mem=16000MB
#p B2PLYPD3/Def2QZVP 

cyanomethane

0 1
C  -6.600133  -1.113844   1.175074
C  -5.205203  -0.801906   0.881723
N  -4.096243  -0.534081   0.716737
H  -6.768541  -1.175715   2.225656
H  -6.767909  -2.021536   0.701261
H  -7.215247  -0.335828   0.772823
