%chk=/home/boittier/MDCM/nms_sampling/cyanomethane_geom.xyz.dir/cyanomethane_751.chk
%nproc=8
%mem=16000MB
#p B2PLYPD3/Def2QZVP 

cyanomethane

0 1
C  -6.599326  -1.111862   1.170284
C  -5.200078  -0.811420   0.906130
N  -4.088999  -0.526695   0.701279
H  -6.742127  -1.212415   2.234791
H  -6.915741  -2.000607   0.654695
H  -7.266543  -0.316915   0.793262

