%chk=/home/boittier/MDCM/nms_sampling/cyanomethane_geom.xyz.dir/cyanomethane_493.chk
%nproc=8
%mem=16000MB
#p B2PLYPD3/Def2QZVP 

cyanomethane

0 1
C  -6.598854  -1.112158   1.169918
C  -5.199730  -0.809471   0.909109
N  -4.090626  -0.525278   0.700743
H  -6.765958  -1.235525   2.224079
H  -6.946167  -2.023383   0.641339
H  -7.198348  -0.302859   0.796754
