%chk=/home/boittier/MDCM/nms_sampling/cyanomethane_geom.xyz.dir/cyanomethane_426.chk
%nproc=8
%mem=16000MB
#p B2PLYPD3/Def2QZVP 

cyanomethane

0 1
C  -6.604886  -1.115442   1.165355
C  -5.199436  -0.784874   0.904810
N  -4.091521  -0.541923   0.704844
H  -6.782137  -1.219509   2.223099
H  -6.808205  -2.043681   0.684767
H  -7.238836  -0.331077   0.792602
