%chk=/home/boittier/MDCM/nms_sampling/cyanomethane_geom.xyz.dir/cyanomethane_799.chk
%nproc=8
%mem=16000MB
#p B2PLYPD3/Def2QZVP 

cyanomethane

0 1
C  -6.601356  -1.115270   1.162073
C  -5.200301  -0.777947   0.910864
N  -4.090789  -0.545312   0.702282
H  -6.799100  -1.239960   2.250855
H  -6.821932  -2.087217   0.667585
H  -7.250094  -0.300379   0.788417

