%chk=/home/boittier/MDCM/nms_sampling/cyanomethane_geom.xyz.dir/cyanomethane_209.chk
%nproc=8
%mem=16000MB
#p B2PLYPD3/Def2QZVP 

cyanomethane

0 1
C  -6.594844  -1.120244   1.163655
C  -5.204178  -0.784232   0.931117
N  -4.097205  -0.538875   0.690231
H  -6.748470  -1.211584   2.220484
H  -6.878631  -2.058557   0.646124
H  -7.186659  -0.304977   0.751434

