%chk=/home/boittier/MDCM/nms_sampling/cyanomethane_geom.xyz.dir/cyanomethane_2701.chk
%nproc=8
%mem=16000MB
#p B2PLYPD3/Def2QZVP 

cyanomethane

0 1
C  -6.599448  -1.107972   1.166988
C  -5.210349  -0.795302   0.864369
N  -4.100389  -0.537451   0.732702
H  -6.884282  -1.279116   2.303455
H  -6.646981  -2.067133   0.646818
H  -7.108460  -0.278279   0.842186
