%chk=/home/boittier/MDCM/nms_sampling/cyanomethane_geom.xyz.dir/cyanomethane_1954.chk
%nproc=8
%mem=16000MB
#p B2PLYPD3/Def2QZVP 

cyanomethane

0 1
C  -6.605848  -1.110326   1.167908
C  -5.196617  -0.771237   0.895715
N  -4.089847  -0.551851   0.709395
H  -6.789409  -1.249016   2.260388
H  -6.776316  -2.117593   0.675030
H  -7.308873  -0.316354   0.779659
