%chk=/home/boittier/MDCM/nms_sampling/cyanomethane_geom.xyz.dir/cyanomethane_1660.chk
%nproc=8
%mem=16000MB
#p B2PLYPD3/Def2QZVP 

cyanomethane

0 1
C  -6.608054  -1.103767   1.170024
C  -5.197175  -0.800401   0.875427
N  -4.089784  -0.536411   0.719112
H  -6.762396  -1.260462   2.234787
H  -6.793247  -2.051248   0.704104
H  -7.285507  -0.320355   0.855080
