%chk=/home/boittier/MDCM/nms_sampling/cyanomethane_geom.xyz.dir/cyanomethane_1047.chk
%nproc=8
%mem=16000MB
#p B2PLYPD3/Def2QZVP 

cyanomethane

0 1
C  -6.602724  -1.116886   1.156625
C  -5.199872  -0.792623   0.934647
N  -4.092709  -0.537236   0.688558
H  -6.741707  -1.203669   2.224077
H  -6.835653  -2.022367   0.671390
H  -7.257018  -0.316149   0.783639

