%chk=/home/boittier/MDCM/nms_sampling/cyanomethane_geom.xyz.dir/cyanomethane_1779.chk
%nproc=8
%mem=16000MB
#p B2PLYPD3/Def2QZVP 

cyanomethane

0 1
C  -6.595863  -1.127546   1.160388
C  -5.204709  -0.811468   0.917820
N  -4.099888  -0.523901   0.697573
H  -6.727811  -1.113121   2.249426
H  -6.878359  -2.001574   0.713330
H  -7.151994  -0.277213   0.756918
