%chk=/home/boittier/MDCM/nms_sampling/cyanomethane_geom.xyz.dir/cyanomethane_478.chk
%nproc=8
%mem=16000MB
#p B2PLYPD3/Def2QZVP 

cyanomethane

0 1
C  -6.590716  -1.116426   1.160648
C  -5.201951  -0.778272   0.915247
N  -4.097082  -0.544798   0.697884
H  -6.756472  -1.252218   2.225610
H  -6.856913  -2.034521   0.672475
H  -7.277952  -0.326210   0.824792
