%chk=/home/boittier/MDCM/nms_sampling/cyanomethane_geom.xyz.dir/cyanomethane_2255.chk
%nproc=8
%mem=16000MB
#p B2PLYPD3/Def2QZVP 

cyanomethane

0 1
C  -6.595930  -1.097645   1.169011
C  -5.207762  -0.836910   0.903971
N  -4.098053  -0.517019   0.704076
H  -6.709903  -1.176107   2.220613
H  -6.795958  -2.042831   0.704727
H  -7.240867  -0.322055   0.767859
