%chk=/home/boittier/MDCM/nms_sampling/cyanomethane_geom.xyz.dir/cyanomethane_3168.chk
%nproc=8
%mem=16000MB
#p B2PLYPD3/Def2QZVP 

cyanomethane

0 1
C  -6.618080  -1.083529   1.181227
C  -5.195585  -0.861771   0.902647
N  -4.090629  -0.502639   0.707173
H  -6.770142  -1.210607   2.267849
H  -6.810903  -2.110469   0.594706
H  -7.151194  -0.281379   0.689039
