%chk=/home/boittier/MDCM/nms_sampling/cyanomethane_geom.xyz.dir/cyanomethane_812.chk
%nproc=8
%mem=16000MB
#p B2PLYPD3/Def2QZVP 

cyanomethane

0 1
C  -6.595261  -1.120272   1.162794
C  -5.205433  -0.775958   0.908386
N  -4.096380  -0.543998   0.701410
H  -6.736515  -1.227613   2.212405
H  -6.867972  -2.051810   0.704233
H  -7.198836  -0.330944   0.811780

