%chk=/home/boittier/MDCM/nms_sampling/cyanomethane_geom.xyz.dir/cyanomethane_288.chk
%nproc=8
%mem=16000MB
#p B2PLYPD3/Def2QZVP 

cyanomethane

0 1
C  -6.597495  -1.117288   1.171437
C  -5.202601  -0.782527   0.918620
N  -4.098169  -0.541607   0.694584
H  -6.693717  -1.219944   2.244627
H  -6.863474  -2.079574   0.630071
H  -7.230318  -0.297929   0.738965
