%chk=/home/boittier/MDCM/nms_sampling/cyanomethane_geom.xyz.dir/cyanomethane_1694.chk
%nproc=8
%mem=16000MB
#p B2PLYPD3/Def2QZVP 

cyanomethane

0 1
C  -6.599888  -1.116034   1.166792
C  -5.201371  -0.821184   0.910186
N  -4.087224  -0.518157   0.699571
H  -6.754399  -1.198617   2.186993
H  -6.978171  -1.976052   0.688515
H  -7.192355  -0.305029   0.823229
