%chk=/home/boittier/MDCM/nms_sampling/cyanomethane_geom.xyz.dir/cyanomethane_973.chk
%nproc=8
%mem=16000MB
#p B2PLYPD3/Def2QZVP 

cyanomethane

0 1
C  -6.605693  -1.119459   1.164666
C  -5.200421  -0.788613   0.921666
N  -4.090614  -0.538505   0.694573
H  -6.735683  -1.205161   2.224433
H  -6.849854  -2.034031   0.658988
H  -7.235071  -0.304655   0.772143

