%chk=/home/boittier/MDCM/nms_sampling/cyanomethane_geom.xyz.dir/cyanomethane_1006.chk
%nproc=8
%mem=16000MB
#p B2PLYPD3/Def2QZVP 

cyanomethane

0 1
C  -6.599337  -1.115858   1.166383
C  -5.200624  -0.791671   0.889289
N  -4.090130  -0.538475   0.712920
H  -6.804966  -1.202376   2.246954
H  -6.836749  -2.044391   0.710240
H  -7.259028  -0.318517   0.804573
