%chk=/home/boittier/MDCM/nms_sampling/cyanomethane_geom.xyz.dir/cyanomethane_924.chk
%nproc=8
%mem=16000MB
#p B2PLYPD3/Def2QZVP 

cyanomethane

0 1
C  -6.591078  -1.116534   1.170149
C  -5.203660  -0.792047   0.897079
N  -4.096589  -0.538583   0.707213
H  -6.758677  -1.203335   2.229075
H  -6.836644  -2.040250   0.685411
H  -7.278129  -0.303772   0.790620
