%chk=/home/boittier/MDCM/nms_sampling/cyanomethane_geom.xyz.dir/cyanomethane_1591.chk
%nproc=8
%mem=16000MB
#p B2PLYPD3/Def2QZVP 

cyanomethane

0 1
C  -6.607218  -1.122935   1.158446
C  -5.200894  -0.771055   0.946509
N  -4.088991  -0.544452   0.682288
H  -6.749854  -1.257473   2.188271
H  -6.891638  -2.047798   0.626025
H  -7.176484  -0.303558   0.786420
