%chk=/home/boittier/MDCM/nms_sampling/cyanomethane_geom.xyz.dir/cyanomethane_3329.chk
%nproc=8
%mem=16000MB
#p B2PLYPD3/Def2QZVP 

cyanomethane

0 1
C  -6.590549  -1.147784   1.162833
C  -5.209075  -0.725126   0.877190
N  -4.096888  -0.568886   0.716876
H  -6.747846  -1.236821   2.229665
H  -6.851519  -1.958618   0.730540
H  -7.208424  -0.354786   0.895801

