%chk=/home/boittier/MDCM/nms_sampling/cyanomethane_geom.xyz.dir/cyanomethane_1778.chk
%nproc=8
%mem=16000MB
#p B2PLYPD3/Def2QZVP 

cyanomethane

0 1
C  -6.595300  -1.115787   1.154637
C  -5.197262  -0.764582   0.924736
N  -4.092352  -0.551349   0.693691
H  -6.786997  -1.286165   2.252373
H  -6.883543  -2.067524   0.657501
H  -7.288191  -0.331689   0.827670

