%chk=/home/boittier/MDCM/nms_sampling/cyanomethane_geom.xyz.dir/cyanomethane_3567.chk
%nproc=8
%mem=16000MB
#p B2PLYPD3/Def2QZVP 

cyanomethane

0 1
C  -6.594810  -1.092966   1.184260
C  -5.194077  -0.818845   0.820186
N  -4.089577  -0.528309   0.745657
H  -6.807208  -1.257278   2.253646
H  -6.879748  -2.013093   0.758751
H  -7.354042  -0.403910   0.889842

