%chk=/home/boittier/MDCM/nms_sampling/cyanomethane_geom.xyz.dir/cyanomethane_1055.chk
%nproc=8
%mem=16000MB
#p B2PLYPD3/Def2QZVP 

cyanomethane

0 1
C  -6.600164  -1.119007   1.160745
C  -5.198967  -0.777810   0.908084
N  -4.091169  -0.546354   0.703771
H  -6.810459  -1.214402   2.251056
H  -6.802527  -2.032661   0.682528
H  -7.284498  -0.328663   0.796463
