%chk=/home/boittier/MDCM/nms_sampling/cyanomethane_geom.xyz.dir/cyanomethane_2537.chk
%nproc=8
%mem=16000MB
#p B2PLYPD3/Def2QZVP 

cyanomethane

0 1
C  -6.601092  -1.129197   1.181975
C  -5.193284  -0.774859   0.858131
N  -4.085288  -0.545519   0.731393
H  -6.938741  -1.195483   2.328488
H  -6.854086  -2.024354   0.621686
H  -7.245148  -0.294352   0.752909
