%chk=/home/boittier/MDCM/nms_sampling/cyanomethane_geom.xyz.dir/cyanomethane_2299.chk
%nproc=8
%mem=16000MB
#p B2PLYPD3/Def2QZVP 

cyanomethane

0 1
C  -6.594540  -1.118999   1.166176
C  -5.197011  -0.816559   0.917032
N  -4.092546  -0.520442   0.698699
H  -6.824127  -1.194762   2.240042
H  -6.956578  -2.018665   0.636599
H  -7.188101  -0.251782   0.776168
