%chk=/home/boittier/MDCM/nms_sampling/cyanomethane_geom.xyz.dir/cyanomethane_2680.chk
%nproc=8
%mem=16000MB
#p B2PLYPD3/Def2QZVP 

cyanomethane

0 1
C  -6.589897  -1.136750   1.179909
C  -5.207376  -0.720038   0.881645
N  -4.106457  -0.577563   0.710423
H  -6.613591  -1.183322   2.287561
H  -6.773465  -2.102948   0.692792
H  -7.318010  -0.349169   0.722763
