%chk=/home/boittier/MDCM/nms_sampling/cyanomethane_geom.xyz.dir/cyanomethane_580.chk
%nproc=8
%mem=16000MB
#p B2PLYPD3/Def2QZVP 

cyanomethane

0 1
C  -6.589111  -1.114612   1.178199
C  -5.204346  -0.796127   0.885127
N  -4.096045  -0.534352   0.714143
H  -6.800574  -1.217033   2.241433
H  -6.879556  -2.059375   0.653678
H  -7.216352  -0.301812   0.767795
