%chk=/home/boittier/MDCM/nms_sampling/cyanomethane_geom.xyz.dir/cyanomethane_2005.chk
%nproc=8
%mem=16000MB
#p B2PLYPD3/Def2QZVP 

cyanomethane

0 1
C  -6.615362  -1.112253   1.155561
C  -5.196281  -0.795126   0.938257
N  -4.087999  -0.537065   0.686110
H  -6.707674  -1.186018   2.229943
H  -6.820196  -2.049961   0.694017
H  -7.263785  -0.338301   0.757988

