%chk=/home/boittier/MDCM/nms_sampling/cyanomethane_geom.xyz.dir/cyanomethane_2302.chk
%nproc=8
%mem=16000MB
#p B2PLYPD3/Def2QZVP 

cyanomethane

0 1
C  -6.612102  -1.112762   1.171670
C  -5.199841  -0.763413   0.896171
N  -4.087616  -0.554837   0.707447
H  -6.735222  -1.248113   2.231504
H  -6.784722  -2.106332   0.680251
H  -7.271252  -0.349422   0.772442
