%chk=/home/boittier/MDCM/nms_sampling/cyanomethane_geom.xyz.dir/cyanomethane_1537.chk
%nproc=8
%mem=16000MB
#p B2PLYPD3/Def2QZVP 

cyanomethane

0 1
C  -6.597021  -1.112288   1.163486
C  -5.204869  -0.809059   0.917064
N  -4.096942  -0.530225   0.697166
H  -6.717724  -1.186467   2.234309
H  -6.803769  -2.009312   0.676281
H  -7.262772  -0.311797   0.781178
