%chk=/home/boittier/MDCM/nms_sampling/cyanomethane_geom.xyz.dir/cyanomethane_1906.chk
%nproc=8
%mem=16000MB
#p B2PLYPD3/Def2QZVP 

cyanomethane

0 1
C  -6.595504  -1.099330   1.160980
C  -5.198504  -0.794685   0.937595
N  -4.092777  -0.537577   0.685118
H  -6.724744  -1.297425   2.278846
H  -6.890374  -2.072571   0.588401
H  -7.323189  -0.337700   0.776201
