%chk=/home/boittier/MDCM/nms_sampling/cyanomethane_geom.xyz.dir/cyanomethane_663.chk
%nproc=8
%mem=16000MB
#p B2PLYPD3/Def2QZVP 

cyanomethane

0 1
C  -6.592329  -1.116777   1.160530
C  -5.202366  -0.781977   0.905032
N  -4.096186  -0.543556   0.705179
H  -6.799598  -1.213949   2.261573
H  -6.820582  -2.041137   0.691763
H  -7.260601  -0.337398   0.796131

