%chk=/home/boittier/MDCM/nms_sampling/cyanomethane_geom.xyz.dir/cyanomethane_2201.chk
%nproc=8
%mem=16000MB
#p B2PLYPD3/Def2QZVP 

cyanomethane

0 1
C  -6.610366  -1.124170   1.153014
C  -5.196223  -0.796959   0.939256
N  -4.089474  -0.532540   0.686447
H  -6.738671  -1.154563   2.216156
H  -6.881517  -2.053030   0.715080
H  -7.209441  -0.267055   0.770348

