%chk=/home/boittier/MDCM/nms_sampling/cyanomethane_geom.xyz.dir/cyanomethane_640.chk
%nproc=8
%mem=16000MB
#p B2PLYPD3/Def2QZVP 

cyanomethane

0 1
C  -6.601073  -1.109860   1.165258
C  -5.201240  -0.798327   0.895812
N  -4.091602  -0.533938   0.711100
H  -6.823054  -1.231098   2.245379
H  -6.831647  -2.074446   0.685483
H  -7.196967  -0.306496   0.799704
