%chk=/home/boittier/MDCM/nms_sampling/cyanomethane_geom.xyz.dir/cyanomethane_1600.chk
%nproc=8
%mem=16000MB
#p B2PLYPD3/Def2QZVP 

cyanomethane

0 1
C  -6.587385  -1.104065   1.161321
C  -5.205753  -0.817501   0.911786
N  -4.094498  -0.524120   0.702923
H  -6.830500  -1.238793   2.259515
H  -6.862858  -2.063401   0.652521
H  -7.229491  -0.279791   0.799173
