%chk=/home/boittier/MDCM/nms_sampling/cyanomethane_geom.xyz.dir/cyanomethane_646.chk
%nproc=8
%mem=16000MB
#p B2PLYPD3/Def2QZVP 

cyanomethane

0 1
C  -6.595392  -1.107363   1.161864
C  -5.204761  -0.802879   0.896363
N  -4.096487  -0.532031   0.709562
H  -6.774712  -1.240036   2.227573
H  -6.828845  -2.041270   0.710572
H  -7.205589  -0.332341   0.838888

