%chk=/home/boittier/MDCM/nms_sampling/cyanomethane_geom.xyz.dir/cyanomethane_3000.chk
%nproc=8
%mem=16000MB
#p B2PLYPD3/Def2QZVP 

cyanomethane

0 1
C  -6.590061  -1.117296   1.147246
C  -5.203597  -0.760730   0.921749
N  -4.086245  -0.558353   0.698966
H  -6.901909  -1.202260   2.215893
H  -6.755954  -2.010153   0.749959
H  -7.375464  -0.423470   0.811029

