%chk=/home/boittier/MDCM/nms_sampling/cyanomethane_geom.xyz.dir/cyanomethane_89.chk
%nproc=8
%mem=16000MB
#p B2PLYPD3/Def2QZVP 

cyanomethane

0 1
C  -6.596335  -1.116232   1.170334
C  -5.205337  -0.773574   0.904253
N  -4.095933  -0.547376   0.701727
H  -6.702296  -1.250599   2.207160
H  -6.842126  -2.032874   0.667841
H  -7.254404  -0.354532   0.805540

