%chk=/home/boittier/MDCM/nms_sampling/cyanomethane_geom.xyz.dir/cyanomethane_2612.chk
%nproc=8
%mem=16000MB
#p B2PLYPD3/Def2QZVP 

cyanomethane

0 1
C  -6.601446  -1.141160   1.162563
C  -5.191412  -0.793866   0.851012
N  -4.087754  -0.531775   0.733696
H  -6.870672  -1.089216   2.327165
H  -6.961900  -1.961602   0.807071
H  -7.186525  -0.307941   0.835304
