%chk=/home/boittier/MDCM/nms_sampling/cyanomethane_geom.xyz.dir/cyanomethane_272.chk
%nproc=8
%mem=16000MB
#p B2PLYPD3/Def2QZVP 

cyanomethane

0 1
C  -6.590145  -1.111766   1.176028
C  -5.204585  -0.794362   0.879011
N  -4.095335  -0.535129   0.716375
H  -6.774051  -1.242387   2.256565
H  -6.899482  -2.049623   0.665192
H  -7.217368  -0.329635   0.800863
