%chk=/home/boittier/MDCM/nms_sampling/cyanomethane_geom.xyz.dir/cyanomethane_695.chk
%nproc=8
%mem=16000MB
#p B2PLYPD3/Def2QZVP 

cyanomethane

0 1
C  -6.599475  -1.107861   1.158066
C  -5.201351  -0.791566   0.934239
N  -4.089825  -0.537050   0.688715
H  -6.765298  -1.258908   2.233615
H  -6.884086  -2.049993   0.642465
H  -7.246682  -0.346607   0.787611

