%chk=/home/boittier/MDCM/nms_sampling/cyanomethane_geom.xyz.dir/cyanomethane_2174.chk
%nproc=8
%mem=16000MB
#p B2PLYPD3/Def2QZVP 

cyanomethane

0 1
C  -6.583002  -1.129105   1.169181
C  -5.204399  -0.747991   0.904290
N  -4.098076  -0.560948   0.703869
H  -6.810032  -1.207083   2.206878
H  -6.832679  -2.044089   0.687047
H  -7.298349  -0.357011   0.767484
