%chk=/home/boittier/MDCM/nms_sampling/cyanomethane_geom.xyz.dir/cyanomethane_754.chk
%nproc=8
%mem=16000MB
#p B2PLYPD3/Def2QZVP 

cyanomethane

0 1
C  -6.598928  -1.121618   1.163360
C  -5.199889  -0.775760   0.903614
N  -4.089265  -0.545343   0.704044
H  -6.777701  -1.218135   2.256892
H  -6.879797  -2.029163   0.684799
H  -7.269620  -0.335047   0.802401

