%chk=/home/boittier/MDCM/nms_sampling/cyanomethane_geom.xyz.dir/cyanomethane_1757.chk
%nproc=8
%mem=16000MB
#p B2PLYPD3/Def2QZVP 

cyanomethane

0 1
C  -6.605181  -1.110277   1.167449
C  -5.203009  -0.762240   0.903066
N  -4.090128  -0.557537   0.704970
H  -6.747448  -1.259530   2.256189
H  -6.736486  -2.139270   0.665576
H  -7.317611  -0.310085   0.771032
