%chk=/home/boittier/MDCM/nms_sampling/cyanomethane_geom.xyz.dir/cyanomethane_140.chk
%nproc=8
%mem=16000MB
#p B2PLYPD3/Def2QZVP 

cyanomethane

0 1
C  -6.605538  -1.112419   1.163431
C  -5.201382  -0.806657   0.913749
N  -4.090242  -0.530020   0.700349
H  -6.771991  -1.191109   2.217117
H  -6.824884  -2.021686   0.688347
H  -7.219645  -0.323594   0.781769
