%chk=/home/boittier/MDCM/nms_sampling/cyanomethane_geom.xyz.dir/cyanomethane_1310.chk
%nproc=8
%mem=16000MB
#p B2PLYPD3/Def2QZVP 

cyanomethane

0 1
C  -6.613725  -1.111230   1.165942
C  -5.195528  -0.796096   0.923950
N  -4.087413  -0.538812   0.692586
H  -6.710581  -1.199405   2.223911
H  -6.789468  -2.040211   0.659447
H  -7.328640  -0.313620   0.758446
