%chk=/home/boittier/MDCM/nms_sampling/cyanomethane_geom.xyz.dir/cyanomethane_735.chk
%nproc=8
%mem=16000MB
#p B2PLYPD3/Def2QZVP 

cyanomethane

0 1
C  -6.597228  -1.106332   1.169199
C  -5.200108  -0.777901   0.900855
N  -4.092368  -0.545945   0.704839
H  -6.761037  -1.286620   2.250507
H  -6.861616  -2.071334   0.645128
H  -7.279086  -0.363607   0.800990

