%chk=/home/boittier/MDCM/nms_sampling/cyanomethane_geom.xyz.dir/cyanomethane_1968.chk
%nproc=8
%mem=16000MB
#p B2PLYPD3/Def2QZVP 

cyanomethane

0 1
C  -6.602808  -1.113726   1.145638
C  -5.195630  -0.791299   0.948097
N  -4.088900  -0.538281   0.681890
H  -6.770035  -1.232282   2.223869
H  -6.862897  -1.973214   0.679095
H  -7.305820  -0.368309   0.829166
