%chk=/home/boittier/MDCM/nms_sampling/cyanomethane_geom.xyz.dir/cyanomethane_2090.chk
%nproc=8
%mem=16000MB
#p B2PLYPD3/Def2QZVP 

cyanomethane

0 1
C  -6.582819  -1.113503   1.173096
C  -5.206824  -0.827411   0.913424
N  -4.100506  -0.515772   0.700164
H  -6.791652  -1.189804   2.229321
H  -6.919791  -2.032642   0.620651
H  -7.169485  -0.244900   0.749850
