%chk=/home/boittier/MDCM/nms_sampling/cyanomethane_geom.xyz.dir/cyanomethane_200.chk
%nproc=8
%mem=16000MB
#p B2PLYPD3/Def2QZVP 

cyanomethane

0 1
C  -6.598042  -1.105791   1.164233
C  -5.198394  -0.817725   0.911544
N  -4.091533  -0.524982   0.700542
H  -6.775659  -1.200586   2.259427
H  -6.875617  -2.032791   0.670916
H  -7.274473  -0.320844   0.775655

