%chk=/home/boittier/MDCM/nms_sampling/cyanomethane_geom.xyz.dir/cyanomethane_441.chk
%nproc=8
%mem=16000MB
#p B2PLYPD3/Def2QZVP 

cyanomethane

0 1
C  -6.600381  -1.121315   1.165811
C  -5.200829  -0.781651   0.920872
N  -4.095698  -0.540961   0.695682
H  -6.756254  -1.210750   2.215863
H  -6.855577  -2.048877   0.656279
H  -7.196354  -0.308691   0.763595
