%chk=/home/boittier/MDCM/nms_sampling/cyanomethane_geom.xyz.dir/cyanomethane_499.chk
%nproc=8
%mem=16000MB
#p B2PLYPD3/Def2QZVP 

cyanomethane

0 1
C  -6.597911  -1.115007   1.166557
C  -5.203565  -0.809654   0.914225
N  -4.094363  -0.525837   0.699286
H  -6.759854  -1.198282   2.229242
H  -6.887870  -2.018679   0.659361
H  -7.176638  -0.305939   0.775005

