%chk=/home/boittier/MDCM/nms_sampling/cyanomethane_geom.xyz.dir/cyanomethane_2568.chk
%nproc=8
%mem=16000MB
#p B2PLYPD3/Def2QZVP 

cyanomethane

0 1
C  -6.599083  -1.106669   1.178551
C  -5.194121  -0.755582   0.890580
N  -4.081637  -0.562376   0.712156
H  -6.878096  -1.289086   2.303376
H  -6.796627  -2.176141   0.591358
H  -7.427463  -0.297701   0.725128

