%chk=/home/boittier/MDCM/nms_sampling/cyanomethane_geom.xyz.dir/cyanomethane_3033.chk
%nproc=8
%mem=16000MB
#p B2PLYPD3/Def2QZVP 

cyanomethane

0 1
C  -6.567887  -1.140637   1.151900
C  -5.212727  -0.716801   0.907578
N  -4.102073  -0.575273   0.701587
H  -6.792284  -1.226551   2.204218
H  -6.873602  -2.013498   0.768297
H  -7.298976  -0.402290   0.858669

