%chk=/home/boittier/MDCM/nms_sampling/cyanomethane_geom.xyz.dir/cyanomethane_2194.chk
%nproc=8
%mem=16000MB
#p B2PLYPD3/Def2QZVP 

cyanomethane

0 1
C  -6.609654  -1.111381   1.176425
C  -5.199265  -0.801939   0.868302
N  -4.086723  -0.535526   0.724195
H  -6.806775  -1.200683   2.263343
H  -6.764695  -2.028830   0.684645
H  -7.270190  -0.315090   0.794067
