%chk=/home/boittier/MDCM/nms_sampling/cyanomethane_geom.xyz.dir/cyanomethane_2238.chk
%nproc=8
%mem=16000MB
#p B2PLYPD3/Def2QZVP 

cyanomethane

0 1
C  -6.610080  -1.096382   1.165047
C  -5.199648  -0.831454   0.917285
N  -4.087761  -0.518558   0.695419
H  -6.691349  -1.240130   2.170800
H  -6.859627  -2.012161   0.688829
H  -7.265177  -0.331603   0.831581
