%chk=/home/boittier/MDCM/nms_sampling/cyanomethane_geom.xyz.dir/cyanomethane_2677.chk
%nproc=8
%mem=16000MB
#p B2PLYPD3/Def2QZVP 

cyanomethane

0 1
C  -6.600065  -1.115833   1.156464
C  -5.194388  -0.836153   0.924232
N  -4.093439  -0.503655   0.695029
H  -6.804464  -1.198938   2.199934
H  -7.095874  -2.014467   0.704118
H  -7.018383  -0.282038   0.824405
