%chk=/home/boittier/MDCM/nms_sampling/cyanomethane_geom.xyz.dir/cyanomethane_3528.chk
%nproc=8
%mem=16000MB
#p B2PLYPD3/Def2QZVP 

cyanomethane

0 1
C  -6.578594  -1.119576   1.168758
C  -5.208829  -0.785641   0.960247
N  -4.096634  -0.541098   0.666599
H  -6.581053  -1.178299   2.177019
H  -6.979402  -2.071618   0.645528
H  -7.400433  -0.285171   0.709330
