%chk=/home/boittier/MDCM/nms_sampling/cyanomethane_geom.xyz.dir/cyanomethane_2406.chk
%nproc=8
%mem=16000MB
#p B2PLYPD3/Def2QZVP 

cyanomethane

0 1
C  -6.592568  -1.093017   1.164232
C  -5.201591  -0.811437   0.835078
N  -4.105287  -0.533028   0.740744
H  -6.736711  -1.288237   2.337094
H  -6.742115  -2.027565   0.758778
H  -7.280227  -0.375324   0.936538
