%chk=/home/boittier/MDCM/nms_sampling/cyanomethane_geom.xyz.dir/cyanomethane_3483.chk
%nproc=8
%mem=16000MB
#p B2PLYPD3/Def2QZVP 

cyanomethane

0 1
C  -6.570329  -1.096326   1.191092
C  -5.210515  -0.808811   0.839041
N  -4.102956  -0.531807   0.741488
H  -6.922644  -1.289824   2.242785
H  -6.789163  -2.099468   0.635132
H  -7.239265  -0.296628   0.807368

