%chk=/home/boittier/MDCM/nms_sampling/cyanomethane_geom.xyz.dir/cyanomethane_2478.chk
%nproc=8
%mem=16000MB
#p B2PLYPD3/Def2QZVP 

cyanomethane

0 1
C  -6.591641  -1.114635   1.164280
C  -5.202599  -0.805751   0.855952
N  -4.104996  -0.531554   0.734080
H  -6.855706  -1.146389   2.272793
H  -6.749098  -2.026639   0.797288
H  -7.157652  -0.356840   0.819334
