%chk=/home/boittier/MDCM/nms_sampling/cyanomethane_geom.xyz.dir/cyanomethane_1403.chk
%nproc=8
%mem=16000MB
#p B2PLYPD3/Def2QZVP 

cyanomethane

0 1
C  -6.603109  -1.109979   1.169725
C  -5.194857  -0.793358   0.935062
N  -4.089294  -0.535227   0.685057
H  -6.719868  -1.272440   2.176264
H  -6.942591  -2.049629   0.608340
H  -7.273586  -0.306248   0.783062

