%chk=/home/boittier/MDCM/nms_sampling/cyanomethane_geom.xyz.dir/cyanomethane_3591.chk
%nproc=8
%mem=16000MB
#p B2PLYPD3/Def2QZVP 

cyanomethane

0 1
C  -6.569171  -1.106737   1.191695
C  -5.213773  -0.835640   0.892753
N  -4.104796  -0.511605   0.708211
H  -6.761387  -1.151698   2.221679
H  -6.976345  -2.106973   0.632581
H  -7.163427  -0.261146   0.664238

