%chk=/home/boittier/MDCM/nms_sampling/cyanomethane_geom.xyz.dir/cyanomethane_1405.chk
%nproc=8
%mem=16000MB
#p B2PLYPD3/Def2QZVP 

cyanomethane

0 1
C  -6.593062  -1.103843   1.172954
C  -5.204368  -0.801152   0.870726
N  -4.097141  -0.533935   0.722294
H  -6.783937  -1.293265   2.247729
H  -6.819315  -2.056113   0.665084
H  -7.228718  -0.299810   0.863545
