%chk=/home/boittier/MDCM/nms_sampling/cyanomethane_geom.xyz.dir/cyanomethane_1063.chk
%nproc=8
%mem=16000MB
#p B2PLYPD3/Def2QZVP 

cyanomethane

0 1
C  -6.599650  -1.114859   1.153841
C  -5.201439  -0.791616   0.933199
N  -4.090187  -0.537230   0.689036
H  -6.751057  -1.235322   2.230596
H  -6.869695  -2.003282   0.667836
H  -7.266932  -0.335255   0.818898
