%chk=/home/boittier/MDCM/nms_sampling/cyanomethane_geom.xyz.dir/cyanomethane_971.chk
%nproc=8
%mem=16000MB
#p B2PLYPD3/Def2QZVP 

cyanomethane

0 1
C  -6.589466  -1.115750   1.166820
C  -5.205119  -0.789033   0.914976
N  -4.096531  -0.537575   0.696052
H  -6.713440  -1.225209   2.229851
H  -6.915889  -2.020238   0.663596
H  -7.247544  -0.349167   0.787421
