%chk=/home/boittier/MDCM/nms_sampling/cyanomethane_geom.xyz.dir/cyanomethane_772.chk
%nproc=8
%mem=16000MB
#p B2PLYPD3/Def2QZVP 

cyanomethane

0 1
C  -6.604271  -1.116492   1.163174
C  -5.200882  -0.802266   0.911197
N  -4.089569  -0.529628   0.700228
H  -6.752868  -1.212959   2.198558
H  -6.900518  -2.010900   0.696883
H  -7.191893  -0.316942   0.820101

