%chk=/home/boittier/MDCM/nms_sampling/cyanomethane_geom.xyz.dir/cyanomethane_3047.chk
%nproc=8
%mem=16000MB
#p B2PLYPD3/Def2QZVP 

cyanomethane

0 1
C  -6.625167  -1.127604   1.190631
C  -5.196857  -0.772450   0.840347
N  -4.079361  -0.543282   0.735703
H  -6.756281  -1.290446   2.281916
H  -6.897283  -2.021358   0.607031
H  -7.129520  -0.268196   0.849778
