%chk=/home/boittier/MDCM/nms_sampling/cyanomethane_geom.xyz.dir/cyanomethane_77.chk
%nproc=8
%mem=16000MB
#p B2PLYPD3/Def2QZVP 

cyanomethane

0 1
C  -6.608267  -1.124290   1.171150
C  -5.198132  -0.775185   0.904680
N  -4.090312  -0.546140   0.702156
H  -6.722077  -1.194527   2.226836
H  -6.842121  -2.036450   0.674024
H  -7.256688  -0.317421   0.767215

