%chk=/home/boittier/MDCM/nms_sampling/cyanomethane_geom.xyz.dir/cyanomethane_602.chk
%nproc=8
%mem=16000MB
#p B2PLYPD3/Def2QZVP 

cyanomethane

0 1
C  -6.597188  -1.118822   1.166315
C  -5.201016  -0.789634   0.925900
N  -4.090955  -0.537935   0.690686
H  -6.725280  -1.202788   2.236582
H  -6.904416  -2.023105   0.644046
H  -7.282295  -0.320052   0.757844
