%chk=/home/boittier/MDCM/nms_sampling/cyanomethane_geom.xyz.dir/cyanomethane_2857.chk
%nproc=8
%mem=16000MB
#p B2PLYPD3/Def2QZVP 

cyanomethane

0 1
C  -6.622624  -1.140383   1.154572
C  -5.194016  -0.753618   0.954667
N  -4.086249  -0.555582   0.675086
H  -6.649138  -1.162352   2.202956
H  -6.843721  -1.990218   0.675147
H  -7.262182  -0.317902   0.759360
