%chk=/home/boittier/MDCM/nms_sampling/cyanomethane_geom.xyz.dir/cyanomethane_1406.chk
%nproc=8
%mem=16000MB
#p B2PLYPD3/Def2QZVP 

cyanomethane

0 1
C  -6.598610  -1.118756   1.177487
C  -5.200493  -0.798079   0.872421
N  -4.087944  -0.531148   0.720086
H  -6.802996  -1.245213   2.253863
H  -6.939142  -2.009772   0.649650
H  -7.198573  -0.292788   0.831462
