%chk=/home/boittier/MDCM/nms_sampling/cyanomethane_geom.xyz.dir/cyanomethane_1801.chk
%nproc=8
%mem=16000MB
#p B2PLYPD3/Def2QZVP 

cyanomethane

0 1
C  -6.595781  -1.112929   1.160788
C  -5.205088  -0.758974   0.910635
N  -4.094100  -0.556936   0.704130
H  -6.832105  -1.265672   2.266221
H  -6.749778  -2.115180   0.655405
H  -7.253488  -0.337110   0.773402

