%chk=/home/boittier/MDCM/nms_sampling/cyanomethane_geom.xyz.dir/cyanomethane_1733.chk
%nproc=8
%mem=16000MB
#p B2PLYPD3/Def2QZVP 

cyanomethane

0 1
C  -6.599351  -1.110226   1.155823
C  -5.202226  -0.786189   0.888898
N  -4.100021  -0.540510   0.715547
H  -6.797000  -1.285569   2.284362
H  -6.776464  -2.037172   0.689022
H  -7.169712  -0.333993   0.877698

