%chk=/home/boittier/MDCM/nms_sampling/cyanomethane_geom.xyz.dir/cyanomethane_2242.chk
%nproc=8
%mem=16000MB
#p B2PLYPD3/Def2QZVP 

cyanomethane

0 1
C  -6.609781  -1.101306   1.163414
C  -5.200024  -0.802806   0.934524
N  -4.086761  -0.535183   0.687016
H  -6.705160  -1.207673   2.214418
H  -6.816054  -2.070983   0.671314
H  -7.310391  -0.359235   0.736877

