%chk=/home/boittier/MDCM/nms_sampling/cyanomethane_geom.xyz.dir/cyanomethane_2507.chk
%nproc=8
%mem=16000MB
#p B2PLYPD3/Def2QZVP 

cyanomethane

0 1
C  -6.567341  -1.097894   1.184843
C  -5.212350  -0.854825   0.904551
N  -4.104454  -0.499869   0.702213
H  -6.769373  -1.247765   2.246230
H  -7.028021  -1.987214   0.544460
H  -7.150322  -0.300907   0.751331

