%chk=/home/boittier/MDCM/nms_sampling/cyanomethane_geom.xyz.dir/cyanomethane_3083.chk
%nproc=8
%mem=16000MB
#p B2PLYPD3/Def2QZVP 

cyanomethane

0 1
C  -6.623290  -1.098450   1.164868
C  -5.194834  -0.746872   0.893268
N  -4.079524  -0.567425   0.705884
H  -6.657909  -1.371336   2.275173
H  -6.771838  -2.101926   0.658531
H  -7.400405  -0.412546   0.865569

