%chk=/home/boittier/MDCM/nms_sampling/cyanomethane_geom.xyz.dir/cyanomethane_778.chk
%nproc=8
%mem=16000MB
#p B2PLYPD3/Def2QZVP 

cyanomethane

0 1
C  -6.596674  -1.112722   1.164699
C  -5.199466  -0.772097   0.906923
N  -4.091950  -0.548283   0.702214
H  -6.772057  -1.281492   2.248959
H  -6.865670  -2.073085   0.650690
H  -7.283372  -0.326364   0.815322
