%chk=/home/boittier/MDCM/nms_sampling/cyanomethane_geom.xyz.dir/cyanomethane_1767.chk
%nproc=8
%mem=16000MB
#p B2PLYPD3/Def2QZVP 

cyanomethane

0 1
C  -6.583478  -1.111761   1.165014
C  -5.205891  -0.766832   0.923412
N  -4.097793  -0.552803   0.696212
H  -6.835900  -1.263345   2.227299
H  -6.790797  -2.092959   0.624376
H  -7.295997  -0.332898   0.754729

