%chk=/home/boittier/MDCM/nms_sampling/cyanomethane_geom.xyz.dir/cyanomethane_3099.chk
%nproc=8
%mem=16000MB
#p B2PLYPD3/Def2QZVP 

cyanomethane

0 1
C  -6.593700  -1.133633   1.173552
C  -5.201100  -0.784752   0.850977
N  -4.085074  -0.539673   0.733518
H  -6.883819  -1.119999   2.315092
H  -6.904247  -2.026660   0.751497
H  -7.245463  -0.296655   0.781715

