%chk=/home/boittier/MDCM/nms_sampling/cyanomethane_geom.xyz.dir/cyanomethane_115.chk
%nproc=8
%mem=16000MB
#p B2PLYPD3/Def2QZVP 

cyanomethane

0 1
C  -6.591313  -1.113529   1.160633
C  -5.201655  -0.792614   0.932137
N  -4.097768  -0.536245   0.690951
H  -6.793661  -1.226996   2.226040
H  -6.858116  -2.036862   0.639508
H  -7.228288  -0.326644   0.767155
