%chk=/home/boittier/MDCM/nms_sampling/cyanomethane_geom.xyz.dir/cyanomethane_2949.chk
%nproc=8
%mem=16000MB
#p B2PLYPD3/Def2QZVP 

cyanomethane

0 1
C  -6.586150  -1.112842   1.186965
C  -5.203771  -0.744971   0.899143
N  -4.107684  -0.561129   0.701130
H  -6.652239  -1.357309   2.185878
H  -6.880900  -2.086147   0.568613
H  -7.241740  -0.365098   0.791726

