%chk=/home/boittier/MDCM/nms_sampling/cyanomethane_geom.xyz.dir/cyanomethane_2043.chk
%nproc=8
%mem=16000MB
#p B2PLYPD3/Def2QZVP 

cyanomethane

0 1
C  -6.583089  -1.110344   1.169182
C  -5.208069  -0.801419   0.871941
N  -4.098450  -0.534039   0.721193
H  -6.789482  -1.241143   2.273798
H  -6.834228  -1.982683   0.687543
H  -7.268040  -0.351508   0.854339

