%chk=/home/boittier/MDCM/nms_sampling/cyanomethane_geom.xyz.dir/cyanomethane_413.chk
%nproc=8
%mem=16000MB
#p B2PLYPD3/Def2QZVP 

cyanomethane

0 1
C  -6.594960  -1.107926   1.161895
C  -5.204599  -0.797695   0.916014
N  -4.095915  -0.534993   0.697209
H  -6.721027  -1.248590   2.230051
H  -6.852389  -2.050445   0.672065
H  -7.251503  -0.320585   0.813466

