%chk=/home/boittier/MDCM/nms_sampling/cyanomethane_geom.xyz.dir/cyanomethane_1249.chk
%nproc=8
%mem=16000MB
#p B2PLYPD3/Def2QZVP 

cyanomethane

0 1
C  -6.592769  -1.105876   1.164432
C  -5.205239  -0.790545   0.924269
N  -4.097496  -0.538919   0.692016
H  -6.707763  -1.288170   2.187899
H  -6.849105  -2.040525   0.642274
H  -7.264257  -0.335477   0.824394
