%chk=/home/boittier/MDCM/nms_sampling/cyanomethane_geom.xyz.dir/cyanomethane_2230.chk
%nproc=8
%mem=16000MB
#p B2PLYPD3/Def2QZVP 

cyanomethane

0 1
C  -6.613815  -1.108549   1.158561
C  -5.194480  -0.783931   0.935015
N  -4.087976  -0.544004   0.687089
H  -6.717223  -1.247397   2.192947
H  -6.810381  -2.035794   0.671276
H  -7.303971  -0.363508   0.797383
