%chk=/home/boittier/MDCM/nms_sampling/cyanomethane_geom.xyz.dir/cyanomethane_572.chk
%nproc=8
%mem=16000MB
#p B2PLYPD3/Def2QZVP 

cyanomethane

0 1
C  -6.606268  -1.118934   1.167055
C  -5.197930  -0.774694   0.902790
N  -4.090232  -0.546719   0.706012
H  -6.796827  -1.225538   2.222360
H  -6.814994  -2.062955   0.678381
H  -7.236164  -0.318048   0.786839
