%chk=/home/boittier/MDCM/nms_sampling/cyanomethane_geom.xyz.dir/cyanomethane_3587.chk
%nproc=8
%mem=16000MB
#p B2PLYPD3/Def2QZVP 

cyanomethane

0 1
C  -6.577692  -1.083147   1.149917
C  -5.203581  -0.813936   0.967324
N  -4.105196  -0.527115   0.669913
H  -6.697512  -1.348031   2.291644
H  -6.921707  -2.070677   0.557190
H  -7.300884  -0.379959   0.786915

