%chk=/home/boittier/MDCM/nms_sampling/cyanomethane_geom.xyz.dir/cyanomethane_2756.chk
%nproc=8
%mem=16000MB
#p B2PLYPD3/Def2QZVP 

cyanomethane

0 1
C  -6.600983  -1.134697   1.149561
C  -5.196328  -0.715517   0.902730
N  -4.083812  -0.576626   0.704227
H  -6.797939  -1.273463   2.271825
H  -6.890315  -2.055827   0.738006
H  -7.330767  -0.377772   0.874272

