%chk=/home/boittier/MDCM/nms_sampling/cyanomethane_geom.xyz.dir/cyanomethane_98.chk
%nproc=8
%mem=16000MB
#p B2PLYPD3/Def2QZVP 

cyanomethane

0 1
C  -6.604353  -1.110037   1.170877
C  -5.201520  -0.813290   0.903843
N  -4.090774  -0.524767   0.702565
H  -6.710133  -1.234630   2.231273
H  -6.902619  -2.022553   0.648785
H  -7.207799  -0.295333   0.807117

