%chk=/home/boittier/MDCM/nms_sampling/cyanomethane_geom.xyz.dir/cyanomethane_2871.chk
%nproc=8
%mem=16000MB
#p B2PLYPD3/Def2QZVP 

cyanomethane

0 1
C  -6.595050  -1.102529   1.166029
C  -5.210007  -0.809472   0.945824
N  -4.095620  -0.530660   0.678117
H  -6.620832  -1.226368   2.159910
H  -6.839768  -1.979137   0.642704
H  -7.304837  -0.390094   0.769910
