%chk=/home/boittier/MDCM/nms_sampling/cyanomethane_geom.xyz.dir/cyanomethane_2344.chk
%nproc=8
%mem=16000MB
#p B2PLYPD3/Def2QZVP 

cyanomethane

0 1
C  -6.610149  -1.113544   1.148166
C  -5.199778  -0.794237   0.933912
N  -4.085993  -0.535539   0.688833
H  -6.728172  -1.232751   2.230908
H  -6.868186  -2.018872   0.705101
H  -7.242432  -0.332358   0.840266
