%chk=/home/boittier/MDCM/nms_sampling/cyanomethane_geom.xyz.dir/cyanomethane_2815.chk
%nproc=8
%mem=16000MB
#p B2PLYPD3/Def2QZVP 

cyanomethane

0 1
C  -6.602920  -1.115405   1.197556
C  -5.200695  -0.818853   0.853914
N  -4.083286  -0.523366   0.725752
H  -6.737679  -1.102662   2.252885
H  -6.951675  -2.019577   0.700778
H  -7.264842  -0.356605   0.689186
