%chk=/home/boittier/MDCM/nms_sampling/cyanomethane_geom.xyz.dir/cyanomethane_1857.chk
%nproc=8
%mem=16000MB
#p B2PLYPD3/Def2QZVP 

cyanomethane

0 1
C  -6.594862  -1.125854   1.171791
C  -5.207840  -0.775546   0.884399
N  -4.097264  -0.543309   0.716921
H  -6.815765  -1.193399   2.230838
H  -6.826756  -2.088941   0.702020
H  -7.123792  -0.286739   0.771684

