%chk=/home/boittier/MDCM/nms_sampling/cyanomethane_geom.xyz.dir/cyanomethane_3359.chk
%nproc=8
%mem=16000MB
#p B2PLYPD3/Def2QZVP 

cyanomethane

0 1
C  -6.575075  -1.133045   1.172948
C  -5.203321  -0.796391   0.884035
N  -4.109201  -0.531036   0.715482
H  -6.820954  -1.073560   2.255743
H  -6.924420  -2.006621   0.747224
H  -7.150098  -0.342565   0.713442

