%chk=/home/boittier/MDCM/nms_sampling/cyanomethane_geom.xyz.dir/cyanomethane_1064.chk
%nproc=8
%mem=16000MB
#p B2PLYPD3/Def2QZVP 

cyanomethane

0 1
C  -6.604823  -1.116322   1.168625
C  -5.201392  -0.786406   0.923652
N  -4.089400  -0.539762   0.691105
H  -6.691251  -1.222821   2.177530
H  -6.884685  -2.045179   0.668147
H  -7.258916  -0.318693   0.780096
