%chk=/home/boittier/MDCM/nms_sampling/cyanomethane_geom.xyz.dir/cyanomethane_1712.chk
%nproc=8
%mem=16000MB
#p B2PLYPD3/Def2QZVP 

cyanomethane

0 1
C  -6.605982  -1.125865   1.176293
C  -5.201329  -0.753182   0.895590
N  -4.089070  -0.557491   0.707192
H  -6.745556  -1.211096   2.232846
H  -6.836626  -2.105978   0.671096
H  -7.243957  -0.317912   0.738808
