%chk=/home/boittier/MDCM/nms_sampling/cyanomethane_geom.xyz.dir/cyanomethane_2690.chk
%nproc=8
%mem=16000MB
#p B2PLYPD3/Def2QZVP 

cyanomethane

0 1
C  -6.628766  -1.093877   1.158442
C  -5.197284  -0.822907   0.961370
N  -4.079848  -0.526878   0.672391
H  -6.626912  -1.184403   2.224898
H  -6.767901  -2.089419   0.653089
H  -7.339207  -0.325985   0.699805

