%chk=/home/boittier/MDCM/nms_sampling/cyanomethane_geom.xyz.dir/cyanomethane_2348.chk
%nproc=8
%mem=16000MB
#p B2PLYPD3/Def2QZVP 

cyanomethane

0 1
C  -6.599318  -1.108477   1.182758
C  -5.204518  -0.817253   0.887778
N  -4.093539  -0.523194   0.711020
H  -6.724492  -1.193548   2.253331
H  -6.893757  -2.071211   0.644060
H  -7.188957  -0.292103   0.732274
