%chk=/home/boittier/MDCM/nms_sampling/cyanomethane_geom.xyz.dir/cyanomethane_1655.chk
%nproc=8
%mem=16000MB
#p B2PLYPD3/Def2QZVP 

cyanomethane

0 1
C  -6.600809  -1.099288   1.166639
C  -5.199219  -0.787245   0.926093
N  -4.085590  -0.541473   0.691509
H  -6.767526  -1.330141   2.193420
H  -6.878645  -2.071717   0.605898
H  -7.317163  -0.337993   0.817081
