%chk=/home/boittier/MDCM/nms_sampling/cyanomethane_geom.xyz.dir/cyanomethane_613.chk
%nproc=8
%mem=16000MB
#p B2PLYPD3/Def2QZVP 

cyanomethane

0 1
C  -6.596786  -1.113694   1.168006
C  -5.203819  -0.787703   0.906298
N  -4.096020  -0.541324   0.702492
H  -6.735166  -1.222834   2.232936
H  -6.807447  -2.049151   0.667816
H  -7.268737  -0.317304   0.784910

