%chk=/home/boittier/MDCM/nms_sampling/cyanomethane_geom.xyz.dir/cyanomethane_3465.chk
%nproc=8
%mem=16000MB
#p B2PLYPD3/Def2QZVP 

cyanomethane

0 1
C  -6.577419  -1.103653   1.134288
C  -5.211580  -0.766174   0.962746
N  -4.100585  -0.551436   0.676605
H  -6.784131  -1.339684   2.328005
H  -6.833674  -2.068608   0.610331
H  -7.272862  -0.383108   0.829114

