%chk=/home/boittier/MDCM/nms_sampling/cyanomethane_geom.xyz.dir/cyanomethane_3181.chk
%nproc=8
%mem=16000MB
#p B2PLYPD3/Def2QZVP 

cyanomethane

0 1
C  -6.571466  -1.113110   1.122657
C  -5.203653  -0.777509   0.988203
N  -4.107333  -0.545650   0.662144
H  -6.759560  -1.233903   2.272783
H  -6.868635  -2.001228   0.700375
H  -7.335640  -0.399228   0.823472

