%chk=/home/boittier/MDCM/nms_sampling/cyanomethane_geom.xyz.dir/cyanomethane_2964.chk
%nproc=8
%mem=16000MB
#p B2PLYPD3/Def2QZVP 

cyanomethane

0 1
C  -6.578812  -1.122785   1.155111
C  -5.210415  -0.774357   0.974837
N  -4.097582  -0.538669   0.665683
H  -6.735981  -1.290110   2.159314
H  -7.033042  -2.039138   0.586512
H  -7.155833  -0.302478   0.788598

