%chk=/home/boittier/MDCM/nms_sampling/cyanomethane_geom.xyz.dir/cyanomethane_1851.chk
%nproc=8
%mem=16000MB
#p B2PLYPD3/Def2QZVP 

cyanomethane

0 1
C  -6.614738  -1.104371   1.171236
C  -5.198777  -0.765717   0.904315
N  -4.085711  -0.553266   0.702356
H  -6.714743  -1.311606   2.239254
H  -6.813782  -2.102821   0.631405
H  -7.270948  -0.370001   0.791608
