%chk=/home/boittier/MDCM/nms_sampling/cyanomethane_geom.xyz.dir/cyanomethane_3598.chk
%nproc=8
%mem=16000MB
#p B2PLYPD3/Def2QZVP 

cyanomethane

0 1
C  -6.601230  -1.111649   1.193579
C  -5.203778  -0.813865   0.829704
N  -4.086557  -0.525890   0.738075
H  -6.710642  -1.178030   2.198065
H  -6.938154  -2.044637   0.770119
H  -7.237295  -0.324519   0.822784

