%chk=/home/boittier/MDCM/nms_sampling/cyanomethane_geom.xyz.dir/cyanomethane_1645.chk
%nproc=8
%mem=16000MB
#p B2PLYPD3/Def2QZVP 

cyanomethane

0 1
C  -6.589789  -1.107353   1.175655
C  -5.203929  -0.815762   0.914944
N  -4.099970  -0.522404   0.696758
H  -6.724297  -1.245399   2.226740
H  -6.929683  -2.022986   0.595027
H  -7.185948  -0.310151   0.764037
