%chk=/home/boittier/MDCM/nms_sampling/cyanomethane_geom.xyz.dir/cyanomethane_353.chk
%nproc=8
%mem=16000MB
#p B2PLYPD3/Def2QZVP 

cyanomethane

0 1
C  -6.594588  -1.113263   1.171511
C  -5.203967  -0.803356   0.907232
N  -4.095340  -0.529606   0.701996
H  -6.750820  -1.214361   2.225767
H  -6.898107  -2.064062   0.656337
H  -7.195714  -0.288637   0.767915

