%chk=/home/boittier/MDCM/nms_sampling/cyanomethane_geom.xyz.dir/cyanomethane_902.chk
%nproc=8
%mem=16000MB
#p B2PLYPD3/Def2QZVP 

cyanomethane

0 1
C  -6.608017  -1.116387   1.165074
C  -5.199561  -0.803471   0.908112
N  -4.088795  -0.529707   0.703979
H  -6.795675  -1.209151   2.244137
H  -6.852553  -2.029579   0.657887
H  -7.180159  -0.289156   0.787751
