%chk=/home/boittier/MDCM/nms_sampling/cyanomethane_geom.xyz.dir/cyanomethane_938.chk
%nproc=8
%mem=16000MB
#p B2PLYPD3/Def2QZVP 

cyanomethane

0 1
C  -6.597448  -1.115733   1.159661
C  -5.200049  -0.784343   0.911939
N  -4.089188  -0.540700   0.700592
H  -6.794059  -1.237454   2.249593
H  -6.889507  -2.050238   0.680709
H  -7.260106  -0.321435   0.811172
