%chk=/home/boittier/MDCM/nms_sampling/cyanomethane_geom.xyz.dir/cyanomethane_430.chk
%nproc=8
%mem=16000MB
#p B2PLYPD3/Def2QZVP 

cyanomethane

0 1
C  -6.587962  -1.110647   1.159735
C  -5.205433  -0.793417   0.932752
N  -4.096867  -0.535808   0.689758
H  -6.772365  -1.254342   2.233332
H  -6.875568  -2.027552   0.627445
H  -7.239616  -0.335085   0.788870

