%chk=/home/boittier/MDCM/nms_sampling/cyanomethane_geom.xyz.dir/cyanomethane_2843.chk
%nproc=8
%mem=16000MB
#p B2PLYPD3/Def2QZVP 

cyanomethane

0 1
C  -6.581432  -1.136265   1.138471
C  -5.212467  -0.763785   0.983095
N  -4.100133  -0.545354   0.659603
H  -6.640915  -1.156989   2.183624
H  -7.004876  -1.970657   0.733535
H  -7.189152  -0.402019   0.777449
