%chk=/home/boittier/MDCM/nms_sampling/cyanomethane_geom.xyz.dir/cyanomethane_2078.chk
%nproc=8
%mem=16000MB
#p B2PLYPD3/Def2QZVP 

cyanomethane

0 1
C  -6.581531  -1.091366   1.168105
C  -5.207311  -0.829631   0.903146
N  -4.100056  -0.518849   0.704607
H  -6.763455  -1.270211   2.238451
H  -6.888726  -2.069917   0.655396
H  -7.244388  -0.320602   0.810811
