%chk=/home/boittier/MDCM/nms_sampling/cyanomethane_geom.xyz.dir/cyanomethane_2945.chk
%nproc=8
%mem=16000MB
#p B2PLYPD3/Def2QZVP 

cyanomethane

0 1
C  -6.576286  -1.092522   1.165484
C  -5.211340  -0.867665   0.917733
N  -4.101234  -0.496392   0.699737
H  -6.801590  -1.209871   2.287167
H  -6.923001  -2.089389   0.619113
H  -7.171232  -0.207062   0.757459
