%chk=/home/boittier/MDCM/nms_sampling/cyanomethane_geom.xyz.dir/cyanomethane_2546.chk
%nproc=8
%mem=16000MB
#p B2PLYPD3/Def2QZVP 

cyanomethane

0 1
C  -6.613654  -1.099393   1.180136
C  -5.201587  -0.811750   0.833383
N  -4.085671  -0.528839   0.744627
H  -6.846408  -1.343771   2.254555
H  -6.755963  -2.083436   0.654401
H  -7.172714  -0.223455   0.926009
