%chk=/home/boittier/MDCM/nms_sampling/cyanomethane_geom.xyz.dir/cyanomethane_1158.chk
%nproc=8
%mem=16000MB
#p B2PLYPD3/Def2QZVP 

cyanomethane

0 1
C  -6.591355  -1.120356   1.163130
C  -5.205492  -0.770852   0.908836
N  -4.096526  -0.547000   0.701699
H  -6.764726  -1.252930   2.235416
H  -6.862817  -2.036433   0.665137
H  -7.221190  -0.334290   0.815643
