%chk=/home/boittier/MDCM/nms_sampling/cyanomethane_geom.xyz.dir/cyanomethane_2350.chk
%nproc=8
%mem=16000MB
#p B2PLYPD3/Def2QZVP 

cyanomethane

0 1
C  -6.584723  -1.120689   1.164461
C  -5.205955  -0.819646   0.924612
N  -4.101439  -0.519001   0.695411
H  -6.797721  -1.170631   2.248703
H  -6.905778  -2.002104   0.629699
H  -7.152978  -0.256039   0.753992
