%chk=/home/boittier/MDCM/nms_sampling/cyanomethane_geom.xyz.dir/cyanomethane_2373.chk
%nproc=8
%mem=16000MB
#p B2PLYPD3/Def2QZVP 

cyanomethane

0 1
C  -6.599170  -1.105369   1.180172
C  -5.201100  -0.825076   0.897255
N  -4.099042  -0.517298   0.704845
H  -6.684657  -1.245685   2.208011
H  -6.931805  -2.014492   0.624388
H  -7.155999  -0.307749   0.794568
