%chk=/home/boittier/MDCM/nms_sampling/cyanomethane_geom.xyz.dir/cyanomethane_3093.chk
%nproc=8
%mem=16000MB
#p B2PLYPD3/Def2QZVP 

cyanomethane

0 1
C  -6.619529  -1.101209   1.196074
C  -5.195667  -0.859638   0.903159
N  -4.085457  -0.499495   0.703039
H  -6.728707  -1.159406   2.169002
H  -6.926073  -2.081348   0.592409
H  -7.127966  -0.219952   0.665493

