%chk=/home/boittier/MDCM/nms_sampling/cyanomethane_geom.xyz.dir/cyanomethane_888.chk
%nproc=8
%mem=16000MB
#p B2PLYPD3/Def2QZVP 

cyanomethane

0 1
C  -6.598796  -1.120533   1.161830
C  -5.203348  -0.775305   0.906559
N  -4.094053  -0.547281   0.704122
H  -6.776809  -1.212720   2.231941
H  -6.787814  -2.050232   0.696492
H  -7.254959  -0.312172   0.800757
