%chk=/home/boittier/MDCM/nms_sampling/cyanomethane_geom.xyz.dir/cyanomethane_1187.chk
%nproc=8
%mem=16000MB
#p B2PLYPD3/Def2QZVP 

cyanomethane

0 1
C  -6.604318  -1.111686   1.159734
C  -5.202235  -0.789488   0.929616
N  -4.090798  -0.538829   0.690522
H  -6.728696  -1.237053   2.210028
H  -6.841967  -2.034667   0.666369
H  -7.242237  -0.343781   0.793457
