%chk=/home/boittier/MDCM/nms_sampling/cyanomethane_geom.xyz.dir/cyanomethane_2854.chk
%nproc=8
%mem=16000MB
#p B2PLYPD3/Def2QZVP 

cyanomethane

0 1
C  -6.589739  -1.124513   1.185544
C  -5.204665  -0.747871   0.906478
N  -4.109775  -0.560384   0.695062
H  -6.568097  -1.263889   2.134713
H  -6.852843  -2.037620   0.638134
H  -7.270134  -0.357416   0.780566

