%chk=/home/boittier/MDCM/nms_sampling/cyanomethane_geom.xyz.dir/cyanomethane_1289.chk
%nproc=8
%mem=16000MB
#p B2PLYPD3/Def2QZVP 

cyanomethane

0 1
C  -6.596719  -1.111355   1.176820
C  -5.200507  -0.801784   0.857748
N  -4.090080  -0.532677   0.725717
H  -6.746602  -1.224117   2.285321
H  -6.914559  -2.006856   0.705958
H  -7.273425  -0.354351   0.836913
