%chk=/home/boittier/MDCM/nms_sampling/cyanomethane_geom.xyz.dir/cyanomethane_2877.chk
%nproc=8
%mem=16000MB
#p B2PLYPD3/Def2QZVP 

cyanomethane

0 1
C  -6.627351  -1.109543   1.193214
C  -5.190469  -0.861766   0.898906
N  -4.083776  -0.498523   0.701859
H  -6.642155  -1.096946   2.131019
H  -6.959324  -2.031391   0.683020
H  -7.171590  -0.235267   0.698386

