%chk=/home/boittier/MDCM/nms_sampling/cyanomethane_geom.xyz.dir/cyanomethane_3044.chk
%nproc=8
%mem=16000MB
#p B2PLYPD3/Def2QZVP 

cyanomethane

0 1
C  -6.612546  -1.119009   1.165338
C  -5.190341  -0.737915   0.923093
N  -4.084686  -0.567985   0.698280
H  -6.902142  -1.279719   2.236087
H  -6.746975  -2.093003   0.598150
H  -7.294745  -0.360909   0.738157
