%chk=/home/boittier/MDCM/nms_sampling/cyanomethane_geom.xyz.dir/cyanomethane_468.chk
%nproc=8
%mem=16000MB
#p B2PLYPD3/Def2QZVP 

cyanomethane

0 1
C  -6.590668  -1.108415   1.167574
C  -5.201648  -0.813909   0.906264
N  -4.097445  -0.527070   0.702938
H  -6.765395  -1.207848   2.245483
H  -6.856028  -2.014148   0.661240
H  -7.271048  -0.316777   0.787015
