%chk=/home/boittier/MDCM/nms_sampling/cyanomethane_geom.xyz.dir/cyanomethane_1708.chk
%nproc=8
%mem=16000MB
#p B2PLYPD3/Def2QZVP 

cyanomethane

0 1
C  -6.599741  -1.095635   1.164474
C  -5.206511  -0.838556   0.915674
N  -4.095469  -0.513939   0.697692
H  -6.694226  -1.260398   2.234515
H  -6.841626  -2.015826   0.634836
H  -7.215767  -0.291454   0.828925

