%chk=/home/boittier/MDCM/nms_sampling/cyanomethane_geom.xyz.dir/cyanomethane_2114.chk
%nproc=8
%mem=16000MB
#p B2PLYPD3/Def2QZVP 

cyanomethane

0 1
C  -6.602872  -1.106544   1.165752
C  -5.199593  -0.826783   0.902349
N  -4.086595  -0.520765   0.705592
H  -6.779750  -1.180526   2.251050
H  -6.862487  -2.034775   0.693366
H  -7.278896  -0.287553   0.786337

