%chk=/home/boittier/MDCM/nms_sampling/cyanomethane_geom.xyz.dir/cyanomethane_130.chk
%nproc=8
%mem=16000MB
#p B2PLYPD3/Def2QZVP 

cyanomethane

0 1
C  -6.600270  -1.117595   1.166878
C  -5.200336  -0.798785   0.912765
N  -4.088837  -0.531074   0.700441
H  -6.801230  -1.202479   2.247237
H  -6.916249  -2.039637   0.651982
H  -7.194593  -0.306695   0.761446
