%chk=/home/boittier/MDCM/nms_sampling/cyanomethane_geom.xyz.dir/cyanomethane_3038.chk
%nproc=8
%mem=16000MB
#p B2PLYPD3/Def2QZVP 

cyanomethane

0 1
C  -6.565219  -1.078040   1.171041
C  -5.211854  -0.852200   0.939664
N  -4.106131  -0.509078   0.687307
H  -6.809339  -1.235638   2.227299
H  -6.870913  -2.145513   0.594583
H  -7.276013  -0.297706   0.680729

