%chk=/home/boittier/MDCM/nms_sampling/cyanomethane_geom.xyz.dir/cyanomethane_3197.chk
%nproc=8
%mem=16000MB
#p B2PLYPD3/Def2QZVP 

cyanomethane

0 1
C  -6.589769  -1.142683   1.169283
C  -5.205655  -0.719807   0.920883
N  -4.107173  -0.570372   0.697854
H  -6.809978  -1.243271   2.158219
H  -6.797365  -2.121707   0.643709
H  -7.106344  -0.267906   0.752368

