%chk=/home/boittier/MDCM/nms_sampling/cyanomethane_geom.xyz.dir/cyanomethane_384.chk
%nproc=8
%mem=16000MB
#p B2PLYPD3/Def2QZVP 

cyanomethane

0 1
C  -6.592487  -1.117840   1.175047
C  -5.202394  -0.774795   0.909384
N  -4.097475  -0.546147   0.699899
H  -6.744270  -1.234261   2.236943
H  -6.861516  -2.062712   0.620757
H  -7.254540  -0.323080   0.745015

