%chk=/home/boittier/MDCM/nms_sampling/cyanomethane_geom.xyz.dir/cyanomethane_2126.chk
%nproc=8
%mem=16000MB
#p B2PLYPD3/Def2QZVP 

cyanomethane

0 1
C  -6.585719  -1.099980   1.171451
C  -5.207633  -0.821406   0.903259
N  -4.098868  -0.523110   0.705164
H  -6.768182  -1.240723   2.289872
H  -6.853349  -2.059417   0.611466
H  -7.239443  -0.299791   0.762628

