%chk=/home/boittier/MDCM/nms_sampling/cyanomethane_geom.xyz.dir/cyanomethane_1218.chk
%nproc=8
%mem=16000MB
#p B2PLYPD3/Def2QZVP 

cyanomethane

0 1
C  -6.597957  -1.110323   1.181299
C  -5.200762  -0.827668   0.905906
N  -4.088688  -0.517210   0.701773
H  -6.762394  -1.191735   2.265180
H  -6.939402  -2.029580   0.585845
H  -7.236604  -0.264102   0.719064
