%chk=/home/boittier/MDCM/nms_sampling/cyanomethane_geom.xyz.dir/cyanomethane_1065.chk
%nproc=8
%mem=16000MB
#p B2PLYPD3/Def2QZVP 

cyanomethane

0 1
C  -6.603452  -1.111431   1.166741
C  -5.198335  -0.803314   0.916280
N  -4.092191  -0.529747   0.697208
H  -6.742828  -1.247752   2.216205
H  -6.896633  -2.039192   0.641926
H  -7.210244  -0.292423   0.803975
