%chk=/home/boittier/MDCM/nms_sampling/cyanomethane_geom.xyz.dir/cyanomethane_952.chk
%nproc=8
%mem=16000MB
#p B2PLYPD3/Def2QZVP 

cyanomethane

0 1
C  -6.590183  -1.120591   1.168034
C  -5.201973  -0.793235   0.893810
N  -4.098390  -0.534531   0.709577
H  -6.783741  -1.211185   2.226925
H  -6.894073  -2.003226   0.689098
H  -7.201251  -0.322635   0.817320
