%chk=/home/boittier/MDCM/nms_sampling/cyanomethane_geom.xyz.dir/cyanomethane_2185.chk
%nproc=8
%mem=16000MB
#p B2PLYPD3/Def2QZVP 

cyanomethane

0 1
C  -6.610944  -1.117156   1.174000
C  -5.200058  -0.752899   0.890950
N  -4.085127  -0.558117   0.708253
H  -6.708813  -1.306201   2.234620
H  -6.855124  -2.111288   0.646792
H  -7.271086  -0.304110   0.822269
