%chk=/home/boittier/MDCM/nms_sampling/cyanomethane_geom.xyz.dir/cyanomethane_1527.chk
%nproc=8
%mem=16000MB
#p B2PLYPD3/Def2QZVP 

cyanomethane

0 1
C  -6.608775  -1.106959   1.174343
C  -5.199216  -0.773197   0.898884
N  -4.086507  -0.550761   0.706923
H  -6.776359  -1.249943   2.225847
H  -6.781972  -2.128775   0.660912
H  -7.296334  -0.333140   0.749640
