%chk=/home/boittier/MDCM/nms_sampling/cyanomethane_geom.xyz.dir/cyanomethane_1296.chk
%nproc=8
%mem=16000MB
#p B2PLYPD3/Def2QZVP 

cyanomethane

0 1
C  -6.581495  -1.117328   1.169593
C  -5.205206  -0.805371   0.930488
N  -4.098927  -0.528967   0.688160
H  -6.737673  -1.173451   2.184768
H  -6.933808  -2.012320   0.658361
H  -7.267152  -0.315595   0.741544

