%chk=/home/boittier/MDCM/nms_sampling/cyanomethane_geom.xyz.dir/cyanomethane_2664.chk
%nproc=8
%mem=16000MB
#p B2PLYPD3/Def2QZVP 

cyanomethane

0 1
C  -6.599976  -1.120490   1.145094
C  -5.197855  -0.792335   0.949494
N  -4.082897  -0.540720   0.683699
H  -6.850121  -1.157221   2.212551
H  -6.793588  -2.019599   0.713039
H  -7.385533  -0.285136   0.784223
