%chk=/home/boittier/MDCM/nms_sampling/cyanomethane_geom.xyz.dir/cyanomethane_1720.chk
%nproc=8
%mem=16000MB
#p B2PLYPD3/Def2QZVP 

cyanomethane

0 1
C  -6.593835  -1.113772   1.165237
C  -5.204317  -0.772382   0.897444
N  -4.101140  -0.550979   0.706232
H  -6.701586  -1.259090   2.202095
H  -6.764005  -2.052425   0.706292
H  -7.301569  -0.326060   0.848059

