%chk=/home/boittier/MDCM/nms_sampling/cyanomethane_geom.xyz.dir/cyanomethane_1878.chk
%nproc=8
%mem=16000MB
#p B2PLYPD3/Def2QZVP 

cyanomethane

0 1
C  -6.595192  -1.107095   1.175212
C  -5.201080  -0.814910   0.922260
N  -4.098929  -0.524534   0.692967
H  -6.705271  -1.212928   2.233972
H  -6.898365  -2.099116   0.611408
H  -7.219268  -0.256457   0.719550

