%chk=/home/boittier/MDCM/nms_sampling/cyanomethane_geom.xyz.dir/cyanomethane_2922.chk
%nproc=8
%mem=16000MB
#p B2PLYPD3/Def2QZVP 

cyanomethane

0 1
C  -6.588120  -1.125192   1.153803
C  -5.207909  -0.773511   0.980026
N  -4.107075  -0.543275   0.666270
H  -6.730689  -1.213263   2.159089
H  -6.836067  -2.102350   0.617459
H  -7.144203  -0.248616   0.717264

