%chk=/home/boittier/MDCM/nms_sampling/cyanomethane_geom.xyz.dir/cyanomethane_2081.chk
%nproc=8
%mem=16000MB
#p B2PLYPD3/Def2QZVP 

cyanomethane

0 1
C  -6.616234  -1.114032   1.176099
C  -5.198849  -0.822390   0.909667
N  -4.084560  -0.520204   0.697873
H  -6.667854  -1.173113   2.209148
H  -6.908074  -1.999319   0.655737
H  -7.221317  -0.294072   0.759829

