%chk=/home/boittier/MDCM/nms_sampling/cyanomethane_geom.xyz.dir/cyanomethane_2244.chk
%nproc=8
%mem=16000MB
#p B2PLYPD3/Def2QZVP 

cyanomethane

0 1
C  -6.593929  -1.102326   1.166861
C  -5.202743  -0.793033   0.924754
N  -4.089719  -0.537910   0.691085
H  -6.735190  -1.297157   2.187464
H  -6.898603  -2.048934   0.631016
H  -7.312255  -0.343369   0.815115

