%chk=/home/boittier/MDCM/nms_sampling/cyanomethane_geom.xyz.dir/cyanomethane_313.chk
%nproc=8
%mem=16000MB
#p B2PLYPD3/Def2QZVP 

cyanomethane

0 1
C  -6.587578  -1.119214   1.173853
C  -5.203011  -0.773119   0.896975
N  -4.098221  -0.548067   0.705899
H  -6.748217  -1.203784   2.225078
H  -6.863944  -2.064637   0.687220
H  -7.288393  -0.340754   0.760352
