%chk=/home/boittier/MDCM/nms_sampling/cyanomethane_geom.xyz.dir/cyanomethane_988.chk
%nproc=8
%mem=16000MB
#p B2PLYPD3/Def2QZVP 

cyanomethane

0 1
C  -6.596128  -1.116638   1.173272
C  -5.201236  -0.774585   0.896697
N  -4.096735  -0.547626   0.706520
H  -6.737226  -1.223644   2.217871
H  -6.832867  -2.074387   0.681841
H  -7.269054  -0.327767   0.775684

