%chk=/home/boittier/MDCM/nms_sampling/cyanomethane_geom.xyz.dir/cyanomethane_2672.chk
%nproc=8
%mem=16000MB
#p B2PLYPD3/Def2QZVP 

cyanomethane

0 1
C  -6.595353  -1.128018   1.180800
C  -5.211331  -0.746745   0.883205
N  -4.100669  -0.559530   0.709980
H  -6.614931  -1.307576   2.203119
H  -6.838688  -2.069140   0.632870
H  -7.214633  -0.267163   0.850856
