%chk=/home/boittier/MDCM/nms_sampling/cyanomethane_geom.xyz.dir/cyanomethane_1785.chk
%nproc=8
%mem=16000MB
#p B2PLYPD3/Def2QZVP 

cyanomethane

0 1
C  -6.596266  -1.105294   1.161118
C  -5.200312  -0.789977   0.947011
N  -4.086547  -0.540021   0.680674
H  -6.755150  -1.248034   2.242501
H  -6.895887  -2.102583   0.616642
H  -7.342431  -0.313077   0.735284

