%chk=/home/boittier/MDCM/nms_sampling/cyanomethane_geom.xyz.dir/cyanomethane_175.chk
%nproc=8
%mem=16000MB
#p B2PLYPD3/Def2QZVP 

cyanomethane

0 1
C  -6.597407  -1.113614   1.163860
C  -5.202315  -0.790995   0.904205
N  -4.095388  -0.537666   0.706550
H  -6.812169  -1.235102   2.230588
H  -6.816898  -2.055285   0.673795
H  -7.201088  -0.308211   0.803319

