%chk=/home/boittier/MDCM/nms_sampling/cyanomethane_geom.xyz.dir/cyanomethane_1204.chk
%nproc=8
%mem=16000MB
#p B2PLYPD3/Def2QZVP 

cyanomethane

0 1
C  -6.598086  -1.109833   1.166909
C  -5.200106  -0.792079   0.880923
N  -4.089408  -0.538106   0.719644
H  -6.870827  -1.248999   2.295622
H  -6.828503  -2.076719   0.667038
H  -7.233476  -0.306551   0.807358

