%chk=/home/boittier/MDCM/nms_sampling/cyanomethane_geom.xyz.dir/cyanomethane_1252.chk
%nproc=8
%mem=16000MB
#p B2PLYPD3/Def2QZVP 

cyanomethane

0 1
C  -6.592251  -1.109598   1.159980
C  -5.202361  -0.799453   0.882999
N  -4.101278  -0.534049   0.718151
H  -6.822087  -1.247523   2.233245
H  -6.794368  -1.984118   0.721854
H  -7.193327  -0.371017   0.877164
