%chk=/home/boittier/MDCM/nms_sampling/cyanomethane_geom.xyz.dir/cyanomethane_1898.chk
%nproc=8
%mem=16000MB
#p B2PLYPD3/Def2QZVP 

cyanomethane

0 1
C  -6.596849  -1.122195   1.164712
C  -5.207751  -0.796188   0.884345
N  -4.097287  -0.532302   0.715545
H  -6.766142  -1.195262   2.223624
H  -6.851451  -1.974362   0.730576
H  -7.126848  -0.349662   0.843054

