%chk=/home/boittier/MDCM/nms_sampling/cyanomethane_geom.xyz.dir/cyanomethane_2716.chk
%nproc=8
%mem=16000MB
#p B2PLYPD3/Def2QZVP 

cyanomethane

0 1
C  -6.597216  -1.116115   1.169801
C  -5.203698  -0.766774   0.921136
N  -4.086880  -0.550233   0.686501
H  -6.589813  -1.242694   2.201307
H  -6.990438  -2.012518   0.685046
H  -7.354571  -0.422873   0.793567
