%chk=/home/boittier/MDCM/nms_sampling/cyanomethane_geom.xyz.dir/cyanomethane_2438.chk
%nproc=8
%mem=16000MB
#p B2PLYPD3/Def2QZVP 

cyanomethane

0 1
C  -6.597837  -1.142487   1.156582
C  -5.189432  -0.776439   0.962997
N  -4.087184  -0.539748   0.672089
H  -6.807571  -1.096630   2.152158
H  -7.024015  -1.957752   0.698752
H  -7.264497  -0.340515   0.713948

