%chk=/home/boittier/MDCM/nms_sampling/cyanomethane_geom.xyz.dir/cyanomethane_1950.chk
%nproc=8
%mem=16000MB
#p B2PLYPD3/Def2QZVP 

cyanomethane

0 1
C  -6.583950  -1.109883   1.170310
C  -5.201389  -0.782971   0.924796
N  -4.099758  -0.543845   0.692129
H  -6.755674  -1.250336   2.251596
H  -6.862793  -2.098510   0.602451
H  -7.325392  -0.295957   0.736823

