%chk=/home/boittier/MDCM/nms_sampling/cyanomethane_geom.xyz.dir/cyanomethane_853.chk
%nproc=8
%mem=16000MB
#p B2PLYPD3/Def2QZVP 

cyanomethane

0 1
C  -6.599285  -1.118487   1.170944
C  -5.201919  -0.796832   0.890835
N  -4.097092  -0.533811   0.711179
H  -6.752612  -1.180536   2.248045
H  -6.849882  -2.041794   0.696952
H  -7.186304  -0.314492   0.773067

