%chk=/home/boittier/MDCM/nms_sampling/cyanomethane_geom.xyz.dir/cyanomethane_579.chk
%nproc=8
%mem=16000MB
#p B2PLYPD3/Def2QZVP 

cyanomethane

0 1
C  -6.603699  -1.117061   1.167754
C  -5.197890  -0.783127   0.922969
N  -4.091604  -0.540824   0.692170
H  -6.712750  -1.247865   2.229969
H  -6.894679  -2.036775   0.622575
H  -7.253757  -0.312711   0.781169

