%chk=/home/boittier/MDCM/nms_sampling/cyanomethane_geom.xyz.dir/cyanomethane_985.chk
%nproc=8
%mem=16000MB
#p B2PLYPD3/Def2QZVP 

cyanomethane

0 1
C  -6.599615  -1.106507   1.165124
C  -5.198286  -0.800274   0.926432
N  -4.091753  -0.534396   0.691766
H  -6.746318  -1.242743   2.226480
H  -6.862394  -2.063481   0.636388
H  -7.295214  -0.304747   0.773961

