%chk=/home/boittier/MDCM/nms_sampling/cyanomethane_geom.xyz.dir/cyanomethane_3108.chk
%nproc=8
%mem=16000MB
#p B2PLYPD3/Def2QZVP 

cyanomethane

0 1
C  -6.627471  -1.119531   1.150088
C  -5.189075  -0.793505   0.971139
N  -4.084687  -0.530200   0.670583
H  -6.747508  -1.235350   2.173080
H  -6.930201  -2.016607   0.628458
H  -7.099973  -0.320497   0.775272

