%chk=/home/boittier/MDCM/nms_sampling/cyanomethane_geom.xyz.dir/cyanomethane_3581.chk
%nproc=8
%mem=16000MB
#p B2PLYPD3/Def2QZVP 

cyanomethane

0 1
C  -6.603710  -1.107924   1.187656
C  -5.188795  -0.844382   0.881010
N  -4.084980  -0.508794   0.711596
H  -6.754296  -1.151058   2.193244
H  -7.021484  -1.945228   0.678443
H  -7.288208  -0.350778   0.763813

