%chk=/home/boittier/MDCM/nms_sampling/cyanomethane_geom.xyz.dir/cyanomethane_1079.chk
%nproc=8
%mem=16000MB
#p B2PLYPD3/Def2QZVP 

cyanomethane

0 1
C  -6.594627  -1.106971   1.170034
C  -5.204796  -0.783669   0.896041
N  -4.096636  -0.543342   0.707949
H  -6.749491  -1.284173   2.214722
H  -6.813001  -2.064843   0.661470
H  -7.253093  -0.333964   0.825795

