%chk=/home/boittier/MDCM/nms_sampling/cyanomethane_geom.xyz.dir/cyanomethane_691.chk
%nproc=8
%mem=16000MB
#p B2PLYPD3/Def2QZVP 

cyanomethane

0 1
C  -6.598909  -1.112129   1.153453
C  -5.197959  -0.790564   0.928453
N  -4.091612  -0.537790   0.691711
H  -6.765693  -1.238969   2.227420
H  -6.885684  -2.039877   0.692016
H  -7.266177  -0.334807   0.820625

