%chk=/home/boittier/MDCM/nms_sampling/cyanomethane_geom.xyz.dir/cyanomethane_512.chk
%nproc=8
%mem=16000MB
#p B2PLYPD3/Def2QZVP 

cyanomethane

0 1
C  -6.601949  -1.113395   1.173356
C  -5.199140  -0.783106   0.913103
N  -4.093263  -0.541547   0.697746
H  -6.727627  -1.237754   2.209567
H  -6.876100  -2.092427   0.645023
H  -7.239090  -0.306862   0.754989
