%chk=/home/boittier/MDCM/nms_sampling/cyanomethane_geom.xyz.dir/cyanomethane_2649.chk
%nproc=8
%mem=16000MB
#p B2PLYPD3/Def2QZVP 

cyanomethane

0 1
C  -6.600639  -1.098768   1.165451
C  -5.191418  -0.791907   0.968906
N  -4.088804  -0.541066   0.669506
H  -6.764971  -1.295937   2.216697
H  -6.853163  -2.126029   0.524897
H  -7.398953  -0.265907   0.708682

