%chk=/home/boittier/MDCM/nms_sampling/cyanomethane_geom.xyz.dir/cyanomethane_2893.chk
%nproc=8
%mem=16000MB
#p B2PLYPD3/Def2QZVP 

cyanomethane

0 1
C  -6.605678  -1.147144   1.163266
C  -5.204195  -0.736250   0.896229
N  -4.092631  -0.564500   0.709508
H  -6.783430  -1.100455   2.215864
H  -6.787933  -2.024713   0.783875
H  -7.174821  -0.378103   0.742601

