%chk=/home/boittier/MDCM/nms_sampling/cyanomethane_geom.xyz.dir/cyanomethane_837.chk
%nproc=8
%mem=16000MB
#p B2PLYPD3/Def2QZVP 

cyanomethane

0 1
C  -6.592798  -1.107204   1.173111
C  -5.200344  -0.810419   0.902969
N  -4.095135  -0.527818   0.704340
H  -6.777265  -1.220773   2.226547
H  -6.888565  -2.052538   0.652601
H  -7.247783  -0.308529   0.770252

