%chk=/home/boittier/MDCM/nms_sampling/cyanomethane_geom.xyz.dir/cyanomethane_248.chk
%nproc=8
%mem=16000MB
#p B2PLYPD3/Def2QZVP 

cyanomethane

0 1
C  -6.595481  -1.124543   1.166692
C  -5.205095  -0.770629   0.902472
N  -4.096699  -0.548040   0.704837
H  -6.751555  -1.204172   2.208366
H  -6.825717  -2.047527   0.704293
H  -7.223304  -0.321144   0.793375

