%chk=/home/boittier/MDCM/nms_sampling/cyanomethane_geom.xyz.dir/cyanomethane_3593.chk
%nproc=8
%mem=16000MB
#p B2PLYPD3/Def2QZVP 

cyanomethane

0 1
C  -6.608551  -1.109282   1.179754
C  -5.191511  -0.842296   0.896830
N  -4.086402  -0.511308   0.705133
H  -6.739599  -1.117920   2.228886
H  -6.937806  -1.957702   0.680153
H  -7.277655  -0.347696   0.727477

