%chk=/home/boittier/MDCM/nms_sampling/cyanomethane_geom.xyz.dir/cyanomethane_3014.chk
%nproc=8
%mem=16000MB
#p B2PLYPD3/Def2QZVP 

cyanomethane

0 1
C  -6.613596  -1.142061   1.154084
C  -5.193811  -0.767731   0.988297
N  -4.087191  -0.545172   0.657740
H  -6.689533  -1.100089   2.094714
H  -6.937203  -2.007581   0.702558
H  -7.225099  -0.313069   0.694398

