%chk=/home/boittier/MDCM/nms_sampling/cyanomethane_geom.xyz.dir/cyanomethane_1062.chk
%nproc=8
%mem=16000MB
#p B2PLYPD3/Def2QZVP 

cyanomethane

0 1
C  -6.597601  -1.117847   1.170198
C  -5.205251  -0.782244   0.915125
N  -4.095723  -0.542259   0.696141
H  -6.689534  -1.210302   2.230634
H  -6.856257  -2.059047   0.657214
H  -7.242542  -0.319415   0.754430

