%chk=/home/boittier/MDCM/nms_sampling/cyanomethane_geom.xyz.dir/cyanomethane_3057.chk
%nproc=8
%mem=16000MB
#p B2PLYPD3/Def2QZVP 

cyanomethane

0 1
C  -6.587484  -1.133110   1.154398
C  -5.212455  -0.767243   0.955225
N  -4.104866  -0.542289   0.676945
H  -6.695510  -1.241187   2.175848
H  -6.929511  -1.977733   0.632942
H  -7.069952  -0.338392   0.802694
