%chk=/home/boittier/MDCM/nms_sampling/cyanomethane_geom.xyz.dir/cyanomethane_2935.chk
%nproc=8
%mem=16000MB
#p B2PLYPD3/Def2QZVP 

cyanomethane

0 1
C  -6.591327  -1.131861   1.159217
C  -5.212665  -0.773202   0.933434
N  -4.103647  -0.539258   0.688088
H  -6.677045  -1.267620   2.239345
H  -6.925031  -2.001165   0.603338
H  -7.060576  -0.278010   0.824447
