%chk=/home/boittier/MDCM/nms_sampling/cyanomethane_geom.xyz.dir/cyanomethane_2971.chk
%nproc=8
%mem=16000MB
#p B2PLYPD3/Def2QZVP 

cyanomethane

0 1
C  -6.608628  -1.123581   1.160435
C  -5.196474  -0.797697   0.960266
N  -4.078332  -0.527071   0.673780
H  -6.766922  -1.249875   2.202096
H  -7.048261  -2.044582   0.575375
H  -7.187590  -0.222487   0.772569

