%chk=/home/boittier/MDCM/nms_sampling/cyanomethane_geom.xyz.dir/cyanomethane_594.chk
%nproc=8
%mem=16000MB
#p B2PLYPD3/Def2QZVP 

cyanomethane

0 1
C  -6.594998  -1.115095   1.158534
C  -5.204816  -0.776995   0.916800
N  -4.096752  -0.545337   0.697714
H  -6.742914  -1.243445   2.236346
H  -6.830477  -2.044422   0.684345
H  -7.237084  -0.350062   0.810416
