%chk=/home/boittier/MDCM/nms_sampling/cyanomethane_geom.xyz.dir/cyanomethane_3403.chk
%nproc=8
%mem=16000MB
#p B2PLYPD3/Def2QZVP 

cyanomethane

0 1
C  -6.616158  -1.102410   1.170695
C  -5.191849  -0.810003   0.852855
N  -4.083336  -0.528767   0.739794
H  -7.003031  -1.224561   2.302706
H  -6.766398  -2.134058   0.705160
H  -7.129350  -0.291423   0.786481
