%chk=/home/boittier/MDCM/nms_sampling/cyanomethane_geom.xyz.dir/cyanomethane_201.chk
%nproc=8
%mem=16000MB
#p B2PLYPD3/Def2QZVP 

cyanomethane

0 1
C  -6.596480  -1.116523   1.174089
C  -5.199669  -0.776205   0.912106
N  -4.093115  -0.545088   0.698281
H  -6.752281  -1.231339   2.234903
H  -6.891248  -2.074998   0.629551
H  -7.262219  -0.327332   0.739581
