%chk=/home/boittier/MDCM/nms_sampling/cyanomethane_geom.xyz.dir/cyanomethane_80.chk
%nproc=8
%mem=16000MB
#p B2PLYPD3/Def2QZVP 

cyanomethane

0 1
C  -6.600863  -1.115797   1.170987
C  -5.200420  -0.785972   0.896737
N  -4.088704  -0.540628   0.705852
H  -6.736950  -1.244558   2.231674
H  -6.886005  -2.026644   0.663416
H  -7.281480  -0.321432   0.816566

