%chk=/home/boittier/MDCM/nms_sampling/cyanomethane_geom.xyz.dir/cyanomethane_86.chk
%nproc=8
%mem=16000MB
#p B2PLYPD3/Def2QZVP 

cyanomethane

0 1
C  -6.607489  -1.113164   1.159366
C  -5.198294  -0.772383   0.907970
N  -4.090969  -0.548170   0.703146
H  -6.765645  -1.274185   2.263108
H  -6.815016  -2.067209   0.666305
H  -7.238445  -0.334182   0.823372
