%chk=/home/boittier/MDCM/nms_sampling/cyanomethane_geom.xyz.dir/cyanomethane_105.chk
%nproc=8
%mem=16000MB
#p B2PLYPD3/Def2QZVP 

cyanomethane

0 1
C  -6.590370  -1.112932   1.170171
C  -5.202288  -0.809947   0.909155
N  -4.097042  -0.527657   0.700156
H  -6.741542  -1.181621   2.221312
H  -6.898734  -2.036604   0.681400
H  -7.252479  -0.307836   0.763208

