%chk=/home/boittier/MDCM/nms_sampling/cyanomethane_geom.xyz.dir/cyanomethane_2565.chk
%nproc=8
%mem=16000MB
#p B2PLYPD3/Def2QZVP 

cyanomethane

0 1
C  -6.600326  -1.127546   1.179824
C  -5.189859  -0.800152   0.882136
N  -4.084753  -0.527944   0.719073
H  -6.960644  -1.161211   2.230464
H  -6.970977  -2.042296   0.656491
H  -7.161670  -0.265344   0.736038
