%chk=/home/boittier/MDCM/nms_sampling/cyanomethane_geom.xyz.dir/cyanomethane_2307.chk
%nproc=8
%mem=16000MB
#p B2PLYPD3/Def2QZVP 

cyanomethane

0 1
C  -6.589515  -1.110976   1.155466
C  -5.207736  -0.762607   0.922958
N  -4.098805  -0.552887   0.695897
H  -6.776138  -1.298773   2.214214
H  -6.812315  -2.099024   0.675746
H  -7.222643  -0.345708   0.826766
