%chk=/home/boittier/MDCM/nms_sampling/cyanomethane_geom.xyz.dir/cyanomethane_1420.chk
%nproc=8
%mem=16000MB
#p B2PLYPD3/Def2QZVP 

cyanomethane

0 1
C  -6.610402  -1.107287   1.175167
C  -5.200716  -0.774510   0.889271
N  -4.086158  -0.549336   0.712842
H  -6.788186  -1.258684   2.236258
H  -6.775661  -2.150277   0.664016
H  -7.256991  -0.304527   0.762050
