%chk=/home/boittier/MDCM/nms_sampling/cyanomethane_geom.xyz.dir/cyanomethane_2101.chk
%nproc=8
%mem=16000MB
#p B2PLYPD3/Def2QZVP 

cyanomethane

0 1
C  -6.609155  -1.121088   1.168789
C  -5.198404  -0.817748   0.898724
N  -4.086687  -0.520867   0.706926
H  -6.762897  -1.174300   2.219452
H  -6.913252  -2.003409   0.689910
H  -7.180212  -0.254022   0.807539

