%chk=/home/boittier/MDCM/nms_sampling/cyanomethane_geom.xyz.dir/cyanomethane_1756.chk
%nproc=8
%mem=16000MB
#p B2PLYPD3/Def2QZVP 

cyanomethane

0 1
C  -6.584556  -1.120426   1.160975
C  -5.203911  -0.766458   0.897736
N  -4.099916  -0.552652   0.709434
H  -6.822332  -1.228443   2.258304
H  -6.790042  -2.057776   0.697179
H  -7.290305  -0.322961   0.811885

