%chk=/home/boittier/MDCM/nms_sampling/cyanomethane_geom.xyz.dir/cyanomethane_2744.chk
%nproc=8
%mem=16000MB
#p B2PLYPD3/Def2QZVP 

cyanomethane

0 1
C  -6.615230  -1.110897   1.184663
C  -5.192441  -0.846254   0.892585
N  -4.089130  -0.504993   0.708683
H  -6.721917  -1.155260   2.294119
H  -6.967972  -2.062781   0.607761
H  -7.133423  -0.217458   0.702251
