%chk=/home/boittier/MDCM/nms_sampling/cyanomethane_geom.xyz.dir/cyanomethane_2029.chk
%nproc=8
%mem=16000MB
#p B2PLYPD3/Def2QZVP 

cyanomethane

0 1
C  -6.580596  -1.127170   1.162333
C  -5.207984  -0.752247   0.898094
N  -4.099188  -0.557236   0.706752
H  -6.780291  -1.216126   2.233940
H  -6.872889  -2.047124   0.728113
H  -7.257293  -0.370973   0.808383
