%chk=/home/boittier/MDCM/nms_sampling/cyanomethane_geom.xyz.dir/cyanomethane_3096.chk
%nproc=8
%mem=16000MB
#p B2PLYPD3/Def2QZVP 

cyanomethane

0 1
C  -6.585377  -1.097061   1.150681
C  -5.206197  -0.801388   0.866408
N  -4.093341  -0.531773   0.731704
H  -6.975379  -1.322480   2.324272
H  -6.836953  -2.040137   0.715093
H  -7.145410  -0.393371   0.917298
