%chk=/home/boittier/MDCM/nms_sampling/cyanomethane_geom.xyz.dir/cyanomethane_953.chk
%nproc=8
%mem=16000MB
#p B2PLYPD3/Def2QZVP 

cyanomethane

0 1
C  -6.589328  -1.114016   1.170540
C  -5.202558  -0.812896   0.906434
N  -4.098824  -0.524485   0.702142
H  -6.750294  -1.197047   2.252450
H  -6.917902  -2.023748   0.649939
H  -7.209562  -0.297221   0.768730
