%chk=/home/boittier/MDCM/nms_sampling/cyanomethane_geom.xyz.dir/cyanomethane_286.chk
%nproc=8
%mem=16000MB
#p B2PLYPD3/Def2QZVP 

cyanomethane

0 1
C  -6.596808  -1.114442   1.167027
C  -5.202930  -0.791390   0.921609
N  -4.097609  -0.536156   0.692918
H  -6.689496  -1.230602   2.227712
H  -6.893063  -2.056997   0.648944
H  -7.216551  -0.310965   0.773509

