%chk=/home/boittier/MDCM/nms_sampling/cyanomethane_geom.xyz.dir/cyanomethane_2354.chk
%nproc=8
%mem=16000MB
#p B2PLYPD3/Def2QZVP 

cyanomethane

0 1
C  -6.587590  -1.119153   1.170386
C  -5.201840  -0.762236   0.900260
N  -4.099141  -0.554454   0.704371
H  -6.752016  -1.211447   2.242231
H  -6.846163  -2.049987   0.687403
H  -7.304845  -0.388474   0.759119
