%chk=/home/boittier/MDCM/nms_sampling/cyanomethane_geom.xyz.dir/cyanomethane_1602.chk
%nproc=8
%mem=16000MB
#p B2PLYPD3/Def2QZVP 

cyanomethane

0 1
C  -6.613275  -1.125667   1.164916
C  -5.194814  -0.788055   0.866696
N  -4.088424  -0.536008   0.724532
H  -6.786620  -1.200692   2.278576
H  -6.893116  -2.000022   0.742006
H  -7.145770  -0.329740   0.857953

