%chk=/home/boittier/MDCM/nms_sampling/cyanomethane_geom.xyz.dir/cyanomethane_2453.chk
%nproc=8
%mem=16000MB
#p B2PLYPD3/Def2QZVP 

cyanomethane

0 1
C  -6.618923  -1.109979   1.170725
C  -5.200212  -0.733851   0.911476
N  -4.080777  -0.568499   0.698796
H  -6.727275  -1.349218   2.210356
H  -6.822823  -2.173486   0.627984
H  -7.248050  -0.354402   0.787286
