%chk=/home/boittier/MDCM/nms_sampling/cyanomethane_geom.xyz.dir/cyanomethane_1232.chk
%nproc=8
%mem=16000MB
#p B2PLYPD3/Def2QZVP 

cyanomethane

0 1
C  -6.596536  -1.108843   1.174461
C  -5.204376  -0.785752   0.878234
N  -4.096803  -0.542778   0.718263
H  -6.767808  -1.250975   2.290890
H  -6.788347  -2.092394   0.653110
H  -7.240579  -0.312448   0.784138

