%chk=/home/boittier/MDCM/nms_sampling/cyanomethane_geom.xyz.dir/cyanomethane_1596.chk
%nproc=8
%mem=16000MB
#p B2PLYPD3/Def2QZVP 

cyanomethane

0 1
C  -6.583036  -1.125230   1.162481
C  -5.203666  -0.780505   0.893380
N  -4.102616  -0.542169   0.710283
H  -6.789212  -1.204901   2.231522
H  -6.863696  -2.012920   0.720498
H  -7.232062  -0.313670   0.836461
