%chk=/home/boittier/MDCM/nms_sampling/cyanomethane_geom.xyz.dir/cyanomethane_1098.chk
%nproc=8
%mem=16000MB
#p B2PLYPD3/Def2QZVP 

cyanomethane

0 1
C  -6.589433  -1.106307   1.169010
C  -5.204781  -0.784167   0.899896
N  -4.096449  -0.543275   0.706013
H  -6.767469  -1.264987   2.255978
H  -6.837404  -2.069118   0.652050
H  -7.277947  -0.354214   0.790131

