%chk=/home/boittier/MDCM/nms_sampling/cyanomethane_geom.xyz.dir/cyanomethane_92.chk
%nproc=8
%mem=16000MB
#p B2PLYPD3/Def2QZVP 

cyanomethane

0 1
C  -6.596048  -1.106477   1.162554
C  -5.205318  -0.812168   0.919910
N  -4.096291  -0.526706   0.697995
H  -6.778486  -1.222688   2.228685
H  -6.827714  -2.061905   0.658773
H  -7.192426  -0.295275   0.777890

