%chk=/home/boittier/MDCM/nms_sampling/cyanomethane_geom.xyz.dir/cyanomethane_1040.chk
%nproc=8
%mem=16000MB
#p B2PLYPD3/Def2QZVP 

cyanomethane

0 1
C  -6.604543  -1.114360   1.161097
C  -5.198751  -0.770351   0.912280
N  -4.091010  -0.548475   0.700985
H  -6.787337  -1.282042   2.215046
H  -6.829705  -2.057443   0.664466
H  -7.230565  -0.336979   0.829393

