%chk=/home/boittier/MDCM/nms_sampling/cyanomethane_geom.xyz.dir/cyanomethane_2325.chk
%nproc=8
%mem=16000MB
#p B2PLYPD3/Def2QZVP 

cyanomethane

0 1
C  -6.596361  -1.103423   1.167191
C  -5.197565  -0.783503   0.930613
N  -4.092587  -0.542863   0.688837
H  -6.752917  -1.310153   2.195747
H  -6.880381  -2.071887   0.603392
H  -7.306094  -0.334613   0.795051

