%chk=/home/boittier/MDCM/nms_sampling/cyanomethane_geom.xyz.dir/cyanomethane_3441.chk
%nproc=8
%mem=16000MB
#p B2PLYPD3/Def2QZVP 

cyanomethane

0 1
C  -6.620445  -1.117796   1.128937
C  -5.192319  -0.779976   0.973251
N  -4.088540  -0.544448   0.669737
H  -6.708179  -1.262055   2.204641
H  -6.780939  -1.956668   0.694646
H  -7.281034  -0.345419   0.892914

