%chk=/home/boittier/MDCM/nms_sampling/cyanomethane_geom.xyz.dir/cyanomethane_1861.chk
%nproc=8
%mem=16000MB
#p B2PLYPD3/Def2QZVP 

cyanomethane

0 1
C  -6.588217  -1.121142   1.164833
C  -5.204806  -0.799180   0.874795
N  -4.096053  -0.531449   0.720709
H  -6.816103  -1.212277   2.278111
H  -6.890184  -1.967114   0.705079
H  -7.195706  -0.330266   0.858467
