%chk=/home/boittier/MDCM/nms_sampling/cyanomethane_geom.xyz.dir/cyanomethane_3318.chk
%nproc=8
%mem=16000MB
#p B2PLYPD3/Def2QZVP 

cyanomethane

0 1
C  -6.563636  -1.099463   1.154721
C  -5.211247  -0.810097   0.975601
N  -4.105504  -0.532772   0.664074
H  -6.690919  -1.197672   2.192977
H  -6.865471  -2.064174   0.648627
H  -7.434998  -0.333792   0.718383
