%chk=/home/boittier/MDCM/nms_sampling/cyanomethane_geom.xyz.dir/cyanomethane_3307.chk
%nproc=8
%mem=16000MB
#p B2PLYPD3/Def2QZVP 

cyanomethane

0 1
C  -6.593464  -1.133597   1.164687
C  -5.204468  -0.742177   0.898107
N  -4.107683  -0.557818   0.707976
H  -6.745877  -1.304484   2.186333
H  -6.846534  -2.059433   0.667974
H  -7.082837  -0.284124   0.875266
