%chk=/home/boittier/MDCM/nms_sampling/cyanomethane_geom.xyz.dir/cyanomethane_3050.chk
%nproc=8
%mem=16000MB
#p B2PLYPD3/Def2QZVP 

cyanomethane

0 1
C  -6.597606  -1.099807   1.156181
C  -5.202026  -0.778272   0.953805
N  -4.083413  -0.547983   0.672715
H  -6.652601  -1.277091   2.223234
H  -6.922506  -2.032003   0.650309
H  -7.426686  -0.445883   0.779900
