%chk=/home/boittier/MDCM/nms_sampling/cyanomethane_geom.xyz.dir/cyanomethane_450.chk
%nproc=8
%mem=16000MB
#p B2PLYPD3/Def2QZVP 

cyanomethane

0 1
C  -6.598756  -1.116016   1.174132
C  -5.202368  -0.772699   0.901981
N  -4.095274  -0.548089   0.703803
H  -6.728289  -1.233593   2.221679
H  -6.835409  -2.101849   0.662395
H  -7.250341  -0.309761   0.760126

