%chk=/home/boittier/MDCM/nms_sampling/cyanomethane_geom.xyz.dir/cyanomethane_557.chk
%nproc=8
%mem=16000MB
#p B2PLYPD3/Def2QZVP 

cyanomethane

0 1
C  -6.597526  -1.111192   1.165643
C  -5.200010  -0.782562   0.908475
N  -4.092879  -0.543706   0.701620
H  -6.770175  -1.246860   2.213368
H  -6.838719  -2.055809   0.678021
H  -7.282616  -0.340489   0.802809

