%chk=/home/boittier/MDCM/nms_sampling/cyanomethane_geom.xyz.dir/cyanomethane_713.chk
%nproc=8
%mem=16000MB
#p B2PLYPD3/Def2QZVP 

cyanomethane

0 1
C  -6.594907  -1.116220   1.163115
C  -5.201942  -0.806291   0.906701
N  -4.091713  -0.526440   0.703216
H  -6.786828  -1.220077   2.260941
H  -6.943406  -2.011115   0.664293
H  -7.186503  -0.308361   0.810158

