%chk=/home/boittier/MDCM/nms_sampling/cyanomethane_geom.xyz.dir/cyanomethane_1045.chk
%nproc=8
%mem=16000MB
#p B2PLYPD3/Def2QZVP 

cyanomethane

0 1
C  -6.591071  -1.111035   1.167171
C  -5.204508  -0.811999   0.909615
N  -4.096356  -0.525957   0.702247
H  -6.785991  -1.193165   2.246499
H  -6.877058  -2.035070   0.664396
H  -7.205187  -0.316525   0.760992
