%chk=/home/boittier/MDCM/nms_sampling/cyanomethane_geom.xyz.dir/cyanomethane_593.chk
%nproc=8
%mem=16000MB
#p B2PLYPD3/Def2QZVP 

cyanomethane

0 1
C  -6.594117  -1.115986   1.163353
C  -5.205520  -0.789873   0.925107
N  -4.096424  -0.536302   0.693502
H  -6.753507  -1.236343   2.216073
H  -6.875131  -2.043097   0.645979
H  -7.188391  -0.313221   0.783630

