%chk=/home/boittier/MDCM/nms_sampling/cyanomethane_geom.xyz.dir/cyanomethane_3175.chk
%nproc=8
%mem=16000MB
#p B2PLYPD3/Def2QZVP 

cyanomethane

0 1
C  -6.593951  -1.135056   1.149629
C  -5.211655  -0.724382   0.914567
N  -4.100343  -0.576971   0.701626
H  -6.762168  -1.175646   2.267141
H  -6.636284  -2.082344   0.751695
H  -7.292458  -0.348855   0.777219
