%chk=/home/boittier/MDCM/nms_sampling/cyanomethane_geom.xyz.dir/cyanomethane_2059.chk
%nproc=8
%mem=16000MB
#p B2PLYPD3/Def2QZVP 

cyanomethane

0 1
C  -6.599595  -1.111855   1.173541
C  -5.203069  -0.776176   0.878911
N  -4.099302  -0.547947   0.715008
H  -6.690563  -1.265630   2.224444
H  -6.788986  -2.029990   0.689821
H  -7.259885  -0.364357   0.840941

