%chk=/home/boittier/MDCM/nms_sampling/cyanomethane_geom.xyz.dir/cyanomethane_1032.chk
%nproc=8
%mem=16000MB
#p B2PLYPD3/Def2QZVP 

cyanomethane

0 1
C  -6.591434  -1.124014   1.167322
C  -5.203846  -0.770071   0.899963
N  -4.095140  -0.547928   0.705451
H  -6.766440  -1.213260   2.234329
H  -6.871938  -2.018952   0.687482
H  -7.249096  -0.353875   0.795139
