%chk=/home/boittier/MDCM/nms_sampling/cyanomethane_geom.xyz.dir/cyanomethane_2849.chk
%nproc=8
%mem=16000MB
#p B2PLYPD3/Def2QZVP 

cyanomethane

0 1
C  -6.575043  -1.121336   1.176476
C  -5.210217  -0.789214   0.857300
N  -4.100742  -0.533877   0.732681
H  -6.929151  -1.268402   2.241446
H  -6.901664  -2.009937   0.655599
H  -7.097122  -0.304205   0.855469

