%chk=/home/boittier/MDCM/nms_sampling/cyanomethane_geom.xyz.dir/cyanomethane_3546.chk
%nproc=8
%mem=16000MB
#p B2PLYPD3/Def2QZVP 

cyanomethane

0 1
C  -6.605944  -1.104613   1.148316
C  -5.192788  -0.757045   0.919213
N  -4.083388  -0.556574   0.699649
H  -6.877613  -1.336233   2.285208
H  -6.851556  -2.073595   0.659605
H  -7.282390  -0.422567   0.843630
