%chk=/home/boittier/MDCM/nms_sampling/cyanomethane_geom.xyz.dir/cyanomethane_239.chk
%nproc=8
%mem=16000MB
#p B2PLYPD3/Def2QZVP 

cyanomethane

0 1
C  -6.606236  -1.110159   1.169715
C  -5.198258  -0.810962   0.903080
N  -4.091100  -0.526982   0.702927
H  -6.711345  -1.215423   2.220537
H  -6.889572  -2.037467   0.680445
H  -7.231260  -0.300680   0.801220

