%chk=/home/boittier/MDCM/nms_sampling/cyanomethane_geom.xyz.dir/cyanomethane_957.chk
%nproc=8
%mem=16000MB
#p B2PLYPD3/Def2QZVP 

cyanomethane

0 1
C  -6.600152  -1.112713   1.169314
C  -5.198493  -0.804751   0.902663
N  -4.090585  -0.530333   0.704116
H  -6.765265  -1.189109   2.238810
H  -6.898214  -2.027381   0.685747
H  -7.247971  -0.338404   0.769685
