%chk=/home/boittier/MDCM/nms_sampling/cyanomethane_geom.xyz.dir/cyanomethane_1542.chk
%nproc=8
%mem=16000MB
#p B2PLYPD3/Def2QZVP 

cyanomethane

0 1
C  -6.607888  -1.124620   1.165172
C  -5.197042  -0.790807   0.884934
N  -4.091389  -0.535651   0.714606
H  -6.773436  -1.210564   2.241057
H  -6.867011  -1.971527   0.705264
H  -7.182447  -0.324050   0.852241

