%chk=/home/boittier/MDCM/nms_sampling/cyanomethane_geom.xyz.dir/cyanomethane_328.chk
%nproc=8
%mem=16000MB
#p B2PLYPD3/Def2QZVP 

cyanomethane

0 1
C  -6.588149  -1.104818   1.167725
C  -5.202059  -0.813896   0.898591
N  -4.098555  -0.526995   0.706244
H  -6.756492  -1.236493   2.223709
H  -6.873684  -2.014401   0.680517
H  -7.270800  -0.330578   0.825877

