%chk=/home/boittier/MDCM/nms_sampling/cyanomethane_geom.xyz.dir/cyanomethane_3421.chk
%nproc=8
%mem=16000MB
#p B2PLYPD3/Def2QZVP 

cyanomethane

0 1
C  -6.573438  -1.118126   1.190599
C  -5.213330  -0.739733   0.878215
N  -4.101843  -0.563798   0.710942
H  -6.675780  -1.299718   2.244702
H  -6.939104  -2.072619   0.607642
H  -7.281175  -0.416077   0.757434
