%chk=/home/boittier/MDCM/nms_sampling/cyanomethane_geom.xyz.dir/cyanomethane_2445.chk
%nproc=8
%mem=16000MB
#p B2PLYPD3/Def2QZVP 

cyanomethane

0 1
C  -6.592228  -1.112071   1.138111
C  -5.211939  -0.755353   0.933993
N  -4.100823  -0.558456   0.692430
H  -6.755854  -1.302062   2.241059
H  -6.718330  -2.135991   0.724911
H  -7.224322  -0.303748   0.871611

