%chk=/home/boittier/MDCM/nms_sampling/cyanomethane_geom.xyz.dir/cyanomethane_1307.chk
%nproc=8
%mem=16000MB
#p B2PLYPD3/Def2QZVP 

cyanomethane

0 1
C  -6.598095  -1.114420   1.161812
C  -5.195714  -0.812325   0.911333
N  -4.091074  -0.523762   0.698887
H  -6.749953  -1.209977   2.268754
H  -6.980744  -1.984767   0.671169
H  -7.232457  -0.332893   0.812057

