%chk=/home/boittier/MDCM/nms_sampling/cyanomethane_geom.xyz.dir/cyanomethane_3036.chk
%nproc=8
%mem=16000MB
#p B2PLYPD3/Def2QZVP 

cyanomethane

0 1
C  -6.598454  -1.123058   1.152214
C  -5.198376  -0.820439   0.928353
N  -4.082505  -0.514207   0.693239
H  -6.841772  -1.184612   2.294161
H  -7.071855  -1.967632   0.658605
H  -7.133321  -0.301259   0.801439

