%chk=/home/boittier/MDCM/nms_sampling/cyanomethane_geom.xyz.dir/cyanomethane_2880.chk
%nproc=8
%mem=16000MB
#p B2PLYPD3/Def2QZVP 

cyanomethane

0 1
C  -6.616557  -1.114323   1.160146
C  -5.192560  -0.830858   0.869749
N  -4.087337  -0.520103   0.729996
H  -6.929189  -1.140784   2.250621
H  -6.694664  -2.011991   0.761235
H  -7.205655  -0.236863   0.841045
