%chk=/home/boittier/MDCM/nms_sampling/cyanomethane_geom.xyz.dir/cyanomethane_674.chk
%nproc=8
%mem=16000MB
#p B2PLYPD3/Def2QZVP 

cyanomethane

0 1
C  -6.595764  -1.112825   1.162423
C  -5.202422  -0.794817   0.926952
N  -4.091813  -0.535466   0.693853
H  -6.806952  -1.225086   2.217050
H  -6.855974  -2.052480   0.647985
H  -7.236655  -0.308453   0.769588

