%chk=/home/boittier/MDCM/nms_sampling/cyanomethane_geom.xyz.dir/cyanomethane_2353.chk
%nproc=8
%mem=16000MB
#p B2PLYPD3/Def2QZVP 

cyanomethane

0 1
C  -6.604939  -1.110522   1.161458
C  -5.200449  -0.812868   0.903508
N  -4.089646  -0.526049   0.704567
H  -6.754020  -1.219444   2.211094
H  -6.866291  -1.983383   0.707514
H  -7.221950  -0.336354   0.847008
