%chk=/home/boittier/MDCM/nms_sampling/cyanomethane_geom.xyz.dir/cyanomethane_74.chk
%nproc=8
%mem=16000MB
#p B2PLYPD3/Def2QZVP 

cyanomethane

0 1
C  -6.595620  -1.111102   1.155536
C  -5.199279  -0.791867   0.924492
N  -4.092933  -0.537653   0.694065
H  -6.778801  -1.237677   2.224646
H  -6.872362  -2.036760   0.689296
H  -7.271897  -0.339241   0.816642
