%chk=/home/boittier/MDCM/nms_sampling/cyanomethane_geom.xyz.dir/cyanomethane_3474.chk
%nproc=8
%mem=16000MB
#p B2PLYPD3/Def2QZVP 

cyanomethane

0 1
C  -6.599787  -1.102144   1.170458
C  -5.202841  -0.807688   0.841530
N  -4.102948  -0.529757   0.742860
H  -6.877998  -1.294673   2.278360
H  -6.721780  -2.009120   0.691018
H  -7.089894  -0.353592   0.898659

