%chk=/home/boittier/MDCM/nms_sampling/cyanomethane_geom.xyz.dir/cyanomethane_787.chk
%nproc=8
%mem=16000MB
#p B2PLYPD3/Def2QZVP 

cyanomethane

0 1
C  -6.598215  -1.119451   1.169099
C  -5.202229  -0.790158   0.891902
N  -4.097383  -0.536454   0.711721
H  -6.777931  -1.215487   2.261548
H  -6.849106  -2.056350   0.670176
H  -7.166348  -0.289477   0.790397

