%chk=/home/boittier/MDCM/nms_sampling/cyanomethane_geom.xyz.dir/cyanomethane_9.chk
%nproc=8
%mem=16000MB
#p B2PLYPD3/Def2QZVP 

cyanomethane

0 1
C  -6.604578  -1.115164   1.157844
C  -5.200848  -0.786483   0.932929
N  -4.091127  -0.539498   0.690196
H  -6.757128  -1.224391   2.248267
H  -6.845263  -2.068030   0.651948
H  -7.219813  -0.308725   0.765952

