%chk=/home/boittier/MDCM/nms_sampling/cyanomethane_geom.xyz.dir/cyanomethane_3152.chk
%nproc=8
%mem=16000MB
#p B2PLYPD3/Def2QZVP 

cyanomethane

0 1
C  -6.627218  -1.127607   1.164547
C  -5.194626  -0.832463   0.903192
N  -4.078954  -0.512884   0.703891
H  -6.708834  -1.083540   2.202728
H  -6.914567  -2.010920   0.767046
H  -7.167654  -0.210264   0.790300
