%chk=/home/boittier/MDCM/nms_sampling/cyanomethane_geom.xyz.dir/cyanomethane_2099.chk
%nproc=8
%mem=16000MB
#p B2PLYPD3/Def2QZVP 

cyanomethane

0 1
C  -6.603964  -1.128404   1.164070
C  -5.198347  -0.749074   0.914747
N  -4.093435  -0.557276   0.698619
H  -6.762095  -1.282175   2.212890
H  -6.853770  -2.070106   0.640413
H  -7.208156  -0.284377   0.823057
