%chk=/home/boittier/MDCM/nms_sampling/cyanomethane_geom.xyz.dir/cyanomethane_3130.chk
%nproc=8
%mem=16000MB
#p B2PLYPD3/Def2QZVP 

cyanomethane

0 1
C  -6.578471  -1.134358   1.146344
C  -5.211824  -0.770699   0.963013
N  -4.102074  -0.543526   0.671315
H  -6.681545  -1.235341   2.170501
H  -6.941178  -1.967695   0.664973
H  -7.226185  -0.285245   0.853215

