%chk=/home/boittier/MDCM/nms_sampling/cyanomethane_geom.xyz.dir/cyanomethane_2951.chk
%nproc=8
%mem=16000MB
#p B2PLYPD3/Def2QZVP 

cyanomethane

0 1
C  -6.607382  -1.129722   1.160467
C  -5.190688  -0.766201   0.979181
N  -4.083077  -0.544999   0.665032
H  -6.806886  -1.176676   2.257801
H  -7.003294  -2.074666   0.562006
H  -7.216160  -0.325629   0.624462

