%chk=/home/boittier/MDCM/nms_sampling/cyanomethane_geom.xyz.dir/cyanomethane_1316.chk
%nproc=8
%mem=16000MB
#p B2PLYPD3/Def2QZVP 

cyanomethane

0 1
C  -6.582925  -1.125142   1.178762
C  -5.206485  -0.749319   0.899233
N  -4.100925  -0.558634   0.703136
H  -6.715321  -1.281783   2.245545
H  -6.886172  -2.049160   0.595138
H  -7.275511  -0.327005   0.781308

