%chk=/home/boittier/MDCM/nms_sampling/cyanomethane_geom.xyz.dir/cyanomethane_470.chk
%nproc=8
%mem=16000MB
#p B2PLYPD3/Def2QZVP 

cyanomethane

0 1
C  -6.598387  -1.121793   1.163848
C  -5.200155  -0.790728   0.897953
N  -4.092030  -0.536880   0.708204
H  -6.792923  -1.185400   2.249956
H  -6.872720  -2.037234   0.709158
H  -7.225472  -0.303109   0.796936

