%chk=/home/boittier/MDCM/nms_sampling/cyanomethane_geom.xyz.dir/cyanomethane_1014.chk
%nproc=8
%mem=16000MB
#p B2PLYPD3/Def2QZVP 

cyanomethane

0 1
C  -6.593250  -1.123796   1.162657
C  -5.204187  -0.779927   0.921831
N  -4.095374  -0.542243   0.694763
H  -6.755532  -1.199689   2.236454
H  -6.869133  -2.031520   0.664769
H  -7.234081  -0.312990   0.770655

