%chk=/home/boittier/MDCM/nms_sampling/cyanomethane_geom.xyz.dir/cyanomethane_1266.chk
%nproc=8
%mem=16000MB
#p B2PLYPD3/Def2QZVP 

cyanomethane

0 1
C  -6.595513  -1.098795   1.173860
C  -5.208668  -0.827195   0.910968
N  -4.098402  -0.521087   0.701418
H  -6.734337  -1.234053   2.248698
H  -6.784706  -2.065278   0.601700
H  -7.217532  -0.271688   0.750720

