%chk=/home/boittier/MDCM/nms_sampling/cyanomethane_geom.xyz.dir/cyanomethane_2282.chk
%nproc=8
%mem=16000MB
#p B2PLYPD3/Def2QZVP 

cyanomethane

0 1
C  -6.599152  -1.116556   1.164137
C  -5.202209  -0.806334   0.878858
N  -4.099904  -0.531588   0.721328
H  -6.820491  -1.176918   2.266756
H  -6.733522  -2.007559   0.718540
H  -7.194437  -0.300547   0.818750

