%chk=/home/boittier/MDCM/nms_sampling/cyanomethane_geom.xyz.dir/cyanomethane_2684.chk
%nproc=8
%mem=16000MB
#p B2PLYPD3/Def2QZVP 

cyanomethane

0 1
C  -6.590385  -1.131639   1.176890
C  -5.204594  -0.772424   0.866305
N  -4.088296  -0.545677   0.727756
H  -6.927256  -1.212598   2.299853
H  -6.848216  -2.051009   0.633685
H  -7.210816  -0.242484   0.784121
