%chk=/home/boittier/MDCM/nms_sampling/cyanomethane_geom.xyz.dir/cyanomethane_1432.chk
%nproc=8
%mem=16000MB
#p B2PLYPD3/Def2QZVP 

cyanomethane

0 1
C  -6.597995  -1.123895   1.153685
C  -5.206279  -0.778734   0.939393
N  -4.098193  -0.541835   0.684651
H  -6.683883  -1.210897   2.182253
H  -6.861160  -1.996497   0.700674
H  -7.190928  -0.347896   0.814517
