%chk=/home/boittier/MDCM/nms_sampling/cyanomethane_geom.xyz.dir/cyanomethane_1795.chk
%nproc=8
%mem=16000MB
#p B2PLYPD3/Def2QZVP 

cyanomethane

0 1
C  -6.605706  -1.111639   1.150024
C  -5.202552  -0.797136   0.952066
N  -4.089647  -0.533622   0.682065
H  -6.778721  -1.252654   2.223065
H  -6.827035  -2.064080   0.632470
H  -7.202474  -0.269426   0.795824

