%chk=/home/boittier/MDCM/nms_sampling/cyanomethane_geom.xyz.dir/cyanomethane_1561.chk
%nproc=8
%mem=16000MB
#p B2PLYPD3/Def2QZVP 

cyanomethane

0 1
C  -6.597603  -1.115635   1.179584
C  -5.197871  -0.812358   0.919715
N  -4.092845  -0.523913   0.694565
H  -6.762701  -1.187349   2.232407
H  -6.945585  -2.027662   0.587040
H  -7.211003  -0.290789   0.700881
