%chk=/home/boittier/MDCM/nms_sampling/cyanomethane_geom.xyz.dir/cyanomethane_2229.chk
%nproc=8
%mem=16000MB
#p B2PLYPD3/Def2QZVP 

cyanomethane

0 1
C  -6.615774  -1.097118   1.161771
C  -5.199924  -0.836702   0.918492
N  -4.084593  -0.514488   0.698581
H  -6.755994  -1.223328   2.274670
H  -6.840833  -2.063955   0.643929
H  -7.193910  -0.283198   0.775034
