%chk=/home/boittier/MDCM/nms_sampling/cyanomethane_geom.xyz.dir/cyanomethane_647.chk
%nproc=8
%mem=16000MB
#p B2PLYPD3/Def2QZVP 

cyanomethane

0 1
C  -6.588632  -1.113821   1.166192
C  -5.204356  -0.784663   0.895282
N  -4.097737  -0.540649   0.710595
H  -6.823041  -1.253247   2.253470
H  -6.843739  -2.032841   0.659389
H  -7.212529  -0.343401   0.811683

