%chk=/home/boittier/MDCM/nms_sampling/cyanomethane_geom.xyz.dir/cyanomethane_1717.chk
%nproc=8
%mem=16000MB
#p B2PLYPD3/Def2QZVP 

cyanomethane

0 1
C  -6.596552  -1.127887   1.162629
C  -5.206730  -0.754271   0.908913
N  -4.096863  -0.554542   0.701997
H  -6.750923  -1.256000   2.245009
H  -6.837457  -2.035639   0.655841
H  -7.178031  -0.333319   0.812921

