%chk=/home/boittier/MDCM/nms_sampling/cyanomethane_geom.xyz.dir/cyanomethane_398.chk
%nproc=8
%mem=16000MB
#p B2PLYPD3/Def2QZVP 

cyanomethane

0 1
C  -6.596159  -1.118462   1.170618
C  -5.203030  -0.792510   0.890083
N  -4.097395  -0.535465   0.713540
H  -6.810938  -1.212691   2.232452
H  -6.835816  -2.050988   0.677252
H  -7.161279  -0.295421   0.791053
