%chk=/home/boittier/MDCM/nms_sampling/cyanomethane_geom.xyz.dir/cyanomethane_1606.chk
%nproc=8
%mem=16000MB
#p B2PLYPD3/Def2QZVP 

cyanomethane

0 1
C  -6.610928  -1.125290   1.180318
C  -5.196581  -0.769349   0.885307
N  -4.091317  -0.550525   0.712211
H  -6.735809  -1.176098   2.195534
H  -6.798193  -2.044037   0.697909
H  -7.258781  -0.334594   0.752672

