%chk=/home/boittier/MDCM/nms_sampling/cyanomethane_geom.xyz.dir/cyanomethane_3500.chk
%nproc=8
%mem=16000MB
#p B2PLYPD3/Def2QZVP 

cyanomethane

0 1
C  -6.583500  -1.128026   1.137896
C  -5.203222  -0.727770   0.917594
N  -4.105933  -0.572713   0.700267
H  -6.807402  -1.305728   2.269084
H  -6.734373  -1.991604   0.712639
H  -7.298031  -0.388126   0.922903
