%chk=/home/boittier/MDCM/nms_sampling/cyanomethane_geom.xyz.dir/cyanomethane_3011.chk
%nproc=8
%mem=16000MB
#p B2PLYPD3/Def2QZVP 

cyanomethane

0 1
C  -6.600587  -1.136128   1.164089
C  -5.205037  -0.743504   0.876812
N  -4.099209  -0.563771   0.719190
H  -6.740888  -1.163226   2.265919
H  -6.739323  -2.096737   0.773627
H  -7.223316  -0.300434   0.795389

