%chk=/home/boittier/MDCM/nms_sampling/cyanomethane_geom.xyz.dir/cyanomethane_3007.chk
%nproc=8
%mem=16000MB
#p B2PLYPD3/Def2QZVP 

cyanomethane

0 1
C  -6.619858  -1.127760   1.159144
C  -5.193726  -0.830824   0.925698
N  -4.089516  -0.511689   0.691175
H  -6.665476  -1.146076   2.165757
H  -6.940019  -1.947934   0.717691
H  -7.137507  -0.223535   0.843564

