%chk=/home/boittier/MDCM/nms_sampling/cyanomethane_geom.xyz.dir/cyanomethane_1867.chk
%nproc=8
%mem=16000MB
#p B2PLYPD3/Def2QZVP 

cyanomethane

0 1
C  -6.595321  -1.103987   1.165880
C  -5.197348  -0.801931   0.934194
N  -4.091849  -0.534965   0.686835
H  -6.747463  -1.208795   2.206610
H  -6.871541  -2.059310   0.657503
H  -7.347757  -0.349567   0.736540

