%chk=/home/boittier/MDCM/nms_sampling/cyanomethane_geom.xyz.dir/cyanomethane_589.chk
%nproc=8
%mem=16000MB
#p B2PLYPD3/Def2QZVP 

cyanomethane

0 1
C  -6.599837  -1.115325   1.161946
C  -5.201992  -0.781596   0.904923
N  -4.096397  -0.544692   0.704394
H  -6.749860  -1.216050   2.249314
H  -6.783765  -2.050417   0.696655
H  -7.257835  -0.332901   0.797349

