%chk=/home/boittier/MDCM/nms_sampling/cyanomethane_geom.xyz.dir/cyanomethane_1245.chk
%nproc=8
%mem=16000MB
#p B2PLYPD3/Def2QZVP 

cyanomethane

0 1
C  -6.596870  -1.125982   1.180879
C  -5.205537  -0.752656   0.897279
N  -4.097637  -0.559600   0.704867
H  -6.700780  -1.202207   2.175462
H  -6.788201  -2.084266   0.679487
H  -7.276063  -0.325095   0.740476

