%chk=/home/boittier/MDCM/nms_sampling/cyanomethane_geom.xyz.dir/cyanomethane_3364.chk
%nproc=8
%mem=16000MB
#p B2PLYPD3/Def2QZVP 

cyanomethane

0 1
C  -6.629942  -1.129660   1.161387
C  -5.188770  -0.790337   0.865805
N  -4.083466  -0.539943   0.730263
H  -6.883572  -1.120976   2.276736
H  -6.694807  -2.002199   0.773143
H  -7.190265  -0.295385   0.813844

