%chk=/home/boittier/MDCM/nms_sampling/cyanomethane_geom.xyz.dir/cyanomethane_0.chk
%nproc=8
%mem=16000MB
#p B2PLYPD3/Def2QZVP 

cyanomethane

0 1
C  -6.595606  -1.112263   1.168771
C  -5.204701  -0.790712   0.890081
N  -4.097149  -0.538855   0.711580
H  -6.754568  -1.227903   2.240082
H  -6.818512  -2.040043   0.691784
H  -7.225676  -0.340947   0.807893
