%chk=/home/boittier/MDCM/nms_sampling/cyanomethane_geom.xyz.dir/cyanomethane_1997.chk
%nproc=8
%mem=16000MB
#p B2PLYPD3/Def2QZVP 

cyanomethane

0 1
C  -6.609946  -1.100213   1.161922
C  -5.195878  -0.792618   0.945125
N  -4.089853  -0.538523   0.682500
H  -6.729211  -1.273273   2.194476
H  -6.838673  -2.124355   0.630604
H  -7.266310  -0.312126   0.755769

