%chk=/home/boittier/MDCM/nms_sampling/cyanomethane_geom.xyz.dir/cyanomethane_337.chk
%nproc=8
%mem=16000MB
#p B2PLYPD3/Def2QZVP 

cyanomethane

0 1
C  -6.596229  -1.118959   1.160974
C  -5.203149  -0.778158   0.909774
N  -4.098173  -0.545190   0.702866
H  -6.776588  -1.221855   2.249172
H  -6.789839  -2.044179   0.676459
H  -7.229790  -0.319249   0.795775
