%chk=/home/boittier/MDCM/nms_sampling/cyanomethane_geom.xyz.dir/cyanomethane_2749.chk
%nproc=8
%mem=16000MB
#p B2PLYPD3/Def2QZVP 

cyanomethane

0 1
C  -6.590735  -1.130490   1.148888
C  -5.203376  -0.779633   0.967197
N  -4.087995  -0.538127   0.666535
H  -6.668163  -1.205788   2.185429
H  -7.057818  -1.982781   0.678627
H  -7.274391  -0.318437   0.810732

