%chk=/home/boittier/MDCM/nms_sampling/cyanomethane_geom.xyz.dir/cyanomethane_3360.chk
%nproc=8
%mem=16000MB
#p B2PLYPD3/Def2QZVP 

cyanomethane

0 1
C  -6.581920  -1.142534   1.158251
C  -5.208826  -0.749362   0.910643
N  -4.095877  -0.556180   0.697292
H  -6.712422  -1.217622   2.211708
H  -6.936284  -1.936670   0.707449
H  -7.281292  -0.337574   0.873635
