%chk=/home/boittier/MDCM/nms_sampling/cyanomethane_geom.xyz.dir/cyanomethane_1344.chk
%nproc=8
%mem=16000MB
#p B2PLYPD3/Def2QZVP 

cyanomethane

0 1
C  -6.591569  -1.115400   1.157157
C  -5.205040  -0.753809   0.908915
N  -4.096940  -0.556736   0.703582
H  -6.806592  -1.307972   2.253124
H  -6.823618  -2.063965   0.660794
H  -7.215783  -0.372239   0.838929
