%chk=/home/boittier/MDCM/nms_sampling/cyanomethane_geom.xyz.dir/cyanomethane_2480.chk
%nproc=8
%mem=16000MB
#p B2PLYPD3/Def2QZVP 

cyanomethane

0 1
C  -6.584744  -1.145955   1.165542
C  -5.203730  -0.727809   0.890859
N  -4.089154  -0.569472   0.711651
H  -6.871582  -1.117788   2.224459
H  -6.888294  -2.064960   0.782967
H  -7.291695  -0.367054   0.740346

