%chk=/home/boittier/MDCM/nms_sampling/cyanomethane_geom.xyz.dir/cyanomethane_1590.chk
%nproc=8
%mem=16000MB
#p B2PLYPD3/Def2QZVP 

cyanomethane

0 1
C  -6.600414  -1.111749   1.175213
C  -5.196926  -0.817425   0.879706
N  -4.093065  -0.524960   0.715656
H  -6.750492  -1.169241   2.275474
H  -6.879144  -2.026306   0.693241
H  -7.262930  -0.306584   0.774254

