%chk=/home/boittier/MDCM/nms_sampling/cyanomethane_geom.xyz.dir/cyanomethane_2457.chk
%nproc=8
%mem=16000MB
#p B2PLYPD3/Def2QZVP 

cyanomethane

0 1
C  -6.566611  -1.124183   1.146066
C  -5.210045  -0.773511   0.966080
N  -4.105323  -0.540704   0.671254
H  -6.759708  -1.223161   2.196769
H  -7.019450  -2.048051   0.682873
H  -7.189686  -0.345257   0.781509

