%chk=/home/boittier/MDCM/nms_sampling/cyanomethane_geom.xyz.dir/cyanomethane_560.chk
%nproc=8
%mem=16000MB
#p B2PLYPD3/Def2QZVP 

cyanomethane

0 1
C  -6.604888  -1.111763   1.164353
C  -5.201671  -0.781741   0.909428
N  -4.090126  -0.544568   0.700309
H  -6.721514  -1.254516   2.224319
H  -6.815985  -2.047108   0.673095
H  -7.283806  -0.331889   0.817287
