%chk=/home/boittier/MDCM/nms_sampling/cyanomethane_geom.xyz.dir/cyanomethane_3240.chk
%nproc=8
%mem=16000MB
#p B2PLYPD3/Def2QZVP 

cyanomethane

0 1
C  -6.575387  -1.103983   1.137797
C  -5.206684  -0.857022   0.932453
N  -4.109660  -0.504161   0.694694
H  -6.818118  -1.131488   2.234220
H  -6.819203  -1.988649   0.783801
H  -7.207590  -0.283636   0.842172

