%chk=/home/boittier/MDCM/nms_sampling/cyanomethane_geom.xyz.dir/cyanomethane_2120.chk
%nproc=8
%mem=16000MB
#p B2PLYPD3/Def2QZVP 

cyanomethane

0 1
C  -6.608194  -1.120602   1.169696
C  -5.199154  -0.782227   0.939458
N  -4.089846  -0.540286   0.682972
H  -6.680045  -1.216026   2.229129
H  -6.905842  -2.071227   0.602248
H  -7.230793  -0.284040   0.719550
