%chk=/home/boittier/MDCM/nms_sampling/cyanomethane_geom.xyz.dir/cyanomethane_829.chk
%nproc=8
%mem=16000MB
#p B2PLYPD3/Def2QZVP 

cyanomethane

0 1
C  -6.603892  -1.126329   1.164149
C  -5.198548  -0.768862   0.903670
N  -4.091705  -0.548536   0.704802
H  -6.774512  -1.202783   2.237772
H  -6.843211  -2.053899   0.697189
H  -7.230554  -0.309326   0.790243

