%chk=/home/boittier/MDCM/nms_sampling/cyanomethane_geom.xyz.dir/cyanomethane_2803.chk
%nproc=8
%mem=16000MB
#p B2PLYPD3/Def2QZVP 

cyanomethane

0 1
C  -6.577130  -1.119140   1.152870
C  -5.200959  -0.825486   0.912317
N  -4.100706  -0.511030   0.700844
H  -6.813536  -1.227646   2.270597
H  -7.090219  -2.000443   0.687899
H  -7.111045  -0.255452   0.869884

