%chk=/home/boittier/MDCM/nms_sampling/cyanomethane_geom.xyz.dir/cyanomethane_1298.chk
%nproc=8
%mem=16000MB
#p B2PLYPD3/Def2QZVP 

cyanomethane

0 1
C  -6.611436  -1.100537   1.151064
C  -5.201293  -0.827528   0.928493
N  -4.088050  -0.517207   0.694803
H  -6.782119  -1.252241   2.245898
H  -6.851124  -2.023655   0.665033
H  -7.144215  -0.316113   0.832264
