%chk=/home/boittier/MDCM/nms_sampling/cyanomethane_geom.xyz.dir/cyanomethane_1985.chk
%nproc=8
%mem=16000MB
#p B2PLYPD3/Def2QZVP 

cyanomethane

0 1
C  -6.603697  -1.129274   1.165833
C  -5.195840  -0.753547   0.897480
N  -4.087609  -0.556972   0.707760
H  -6.812136  -1.180613   2.255103
H  -6.863204  -2.039816   0.713396
H  -7.266779  -0.382296   0.759664

