%chk=/home/boittier/MDCM/nms_sampling/cyanomethane_geom.xyz.dir/cyanomethane_945.chk
%nproc=8
%mem=16000MB
#p B2PLYPD3/Def2QZVP 

cyanomethane

0 1
C  -6.601484  -1.108678   1.164691
C  -5.199976  -0.785388   0.903399
N  -4.093318  -0.542656   0.703347
H  -6.723096  -1.263118   2.229874
H  -6.831481  -2.066444   0.683685
H  -7.282868  -0.325324   0.827101
