%chk=/home/boittier/MDCM/nms_sampling/cyanomethane_geom.xyz.dir/cyanomethane_634.chk
%nproc=8
%mem=16000MB
#p B2PLYPD3/Def2QZVP 

cyanomethane

0 1
C  -6.588993  -1.119315   1.168774
C  -5.205255  -0.789207   0.924958
N  -4.096943  -0.537687   0.691582
H  -6.732391  -1.195811   2.213417
H  -6.893281  -2.022443   0.647708
H  -7.250133  -0.330141   0.746908

