%chk=/home/boittier/MDCM/nms_sampling/cyanomethane_geom.xyz.dir/cyanomethane_1752.chk
%nproc=8
%mem=16000MB
#p B2PLYPD3/Def2QZVP 

cyanomethane

0 1
C  -6.591116  -1.107029   1.159008
C  -5.204655  -0.825709   0.904669
N  -4.096499  -0.520039   0.706931
H  -6.821287  -1.163641   2.250882
H  -6.841080  -2.020648   0.726132
H  -7.201866  -0.336697   0.784580

