%chk=/home/boittier/MDCM/nms_sampling/cyanomethane_geom.xyz.dir/cyanomethane_1275.chk
%nproc=8
%mem=16000MB
#p B2PLYPD3/Def2QZVP 

cyanomethane

0 1
C  -6.613631  -1.097994   1.162111
C  -5.200176  -0.807104   0.934479
N  -4.085074  -0.530716   0.686435
H  -6.686154  -1.282889   2.190128
H  -6.856549  -2.030039   0.639307
H  -7.262988  -0.359916   0.812240
