%chk=/home/boittier/MDCM/nms_sampling/cyanomethane_geom.xyz.dir/cyanomethane_3408.chk
%nproc=8
%mem=16000MB
#p B2PLYPD3/Def2QZVP 

cyanomethane

0 1
C  -6.595807  -1.109471   1.169685
C  -5.200377  -0.787951   0.965758
N  -4.086652  -0.535245   0.667816
H  -6.712475  -1.316225   2.123802
H  -7.025334  -2.054586   0.550113
H  -7.256056  -0.305475   0.769298

