%chk=/home/boittier/MDCM/nms_sampling/cyanomethane_geom.xyz.dir/cyanomethane_2173.chk
%nproc=8
%mem=16000MB
#p B2PLYPD3/Def2QZVP 

cyanomethane

0 1
C  -6.614589  -1.107156   1.169562
C  -5.196620  -0.776523   0.892524
N  -4.087723  -0.547194   0.709549
H  -6.734206  -1.292405   2.259731
H  -6.810699  -2.084465   0.650625
H  -7.253846  -0.336988   0.816685

