%chk=/home/boittier/MDCM/nms_sampling/cyanomethane_geom.xyz.dir/cyanomethane_2860.chk
%nproc=8
%mem=16000MB
#p B2PLYPD3/Def2QZVP 

cyanomethane

0 1
C  -6.598825  -1.093036   1.175231
C  -5.191989  -0.760408   0.918117
N  -4.086151  -0.559692   0.694812
H  -6.793323  -1.328206   2.230652
H  -6.846959  -2.174458   0.600852
H  -7.427564  -0.387338   0.728038
