%chk=/home/boittier/MDCM/nms_sampling/cyanomethane_geom.xyz.dir/cyanomethane_2700.chk
%nproc=8
%mem=16000MB
#p B2PLYPD3/Def2QZVP 

cyanomethane

0 1
C  -6.625647  -1.118229   1.166801
C  -5.194437  -0.773956   0.948989
N  -4.079342  -0.550537   0.674613
H  -6.579055  -1.158156   2.231600
H  -6.838505  -2.090904   0.663071
H  -7.393655  -0.322542   0.681475
