%chk=/home/boittier/MDCM/nms_sampling/cyanomethane_geom.xyz.dir/cyanomethane_2384.chk
%nproc=8
%mem=16000MB
#p B2PLYPD3/Def2QZVP 

cyanomethane

0 1
C  -6.583756  -1.102889   1.161597
C  -5.204962  -0.788952   0.943266
N  -4.100379  -0.540038   0.681667
H  -6.701058  -1.288570   2.233612
H  -6.885850  -2.101605   0.608439
H  -7.306866  -0.308258   0.773295
