%chk=/home/boittier/MDCM/nms_sampling/cyanomethane_geom.xyz.dir/cyanomethane_1177.chk
%nproc=8
%mem=16000MB
#p B2PLYPD3/Def2QZVP 

cyanomethane

0 1
C  -6.597443  -1.122827   1.166067
C  -5.203983  -0.775275   0.906161
N  -4.095511  -0.544517   0.704228
H  -6.777935  -1.215880   2.244511
H  -6.839688  -2.075285   0.669362
H  -7.189855  -0.291263   0.775046

