%chk=/home/boittier/MDCM/nms_sampling/cyanomethane_geom.xyz.dir/cyanomethane_997.chk
%nproc=8
%mem=16000MB
#p B2PLYPD3/Def2QZVP 

cyanomethane

0 1
C  -6.593191  -1.110693   1.159402
C  -5.202700  -0.792551   0.927776
N  -4.098253  -0.536519   0.692065
H  -6.750376  -1.257342   2.199309
H  -6.856912  -2.041821   0.661566
H  -7.228828  -0.320128   0.815586
