%chk=/home/boittier/MDCM/nms_sampling/cyanomethane_geom.xyz.dir/cyanomethane_1881.chk
%nproc=8
%mem=16000MB
#p B2PLYPD3/Def2QZVP 

cyanomethane

0 1
C  -6.592269  -1.107835   1.156751
C  -5.207573  -0.782314   0.890403
N  -4.098111  -0.542856   0.715054
H  -6.818648  -1.295018   2.305767
H  -6.786562  -2.066837   0.671083
H  -7.186083  -0.335400   0.855079
