%chk=/home/boittier/MDCM/nms_sampling/cyanomethane_geom.xyz.dir/cyanomethane_1729.chk
%nproc=8
%mem=16000MB
#p B2PLYPD3/Def2QZVP 

cyanomethane

0 1
C  -6.597910  -1.111351   1.169977
C  -5.199147  -0.798747   0.930588
N  -4.087954  -0.534356   0.687590
H  -6.731075  -1.181046   2.221221
H  -6.923497  -2.047158   0.652463
H  -7.313992  -0.350814   0.711196

