%chk=/home/boittier/MDCM/nms_sampling/cyanomethane_geom.xyz.dir/cyanomethane_1167.chk
%nproc=8
%mem=16000MB
#p B2PLYPD3/Def2QZVP 

cyanomethane

0 1
C  -6.597660  -1.106797   1.172907
C  -5.198499  -0.798992   0.889064
N  -4.092058  -0.534784   0.711814
H  -6.792479  -1.253908   2.228918
H  -6.861341  -2.037934   0.662211
H  -7.266018  -0.335270   0.812237
