%chk=/home/boittier/MDCM/nms_sampling/cyanomethane_geom.xyz.dir/cyanomethane_2820.chk
%nproc=8
%mem=16000MB
#p B2PLYPD3/Def2QZVP 

cyanomethane

0 1
C  -6.597779  -1.113970   1.146719
C  -5.202232  -0.748915   0.937690
N  -4.083761  -0.560593   0.691239
H  -6.899923  -1.330184   2.275787
H  -6.805815  -2.019729   0.603683
H  -7.286903  -0.403206   0.829551
