%chk=/home/boittier/MDCM/nms_sampling/cyanomethane_geom.xyz.dir/cyanomethane_1735.chk
%nproc=8
%mem=16000MB
#p B2PLYPD3/Def2QZVP 

cyanomethane

0 1
C  -6.602725  -1.120702   1.160418
C  -5.198598  -0.795090   0.934051
N  -4.085702  -0.532459   0.690463
H  -6.824664  -1.210745   2.228483
H  -6.917661  -2.057269   0.636089
H  -7.204127  -0.259826   0.763247

