%chk=/home/boittier/MDCM/nms_sampling/cyanomethane_geom.xyz.dir/cyanomethane_3585.chk
%nproc=8
%mem=16000MB
#p B2PLYPD3/Def2QZVP 

cyanomethane

0 1
C  -6.615132  -1.141937   1.168483
C  -5.195764  -0.712553   0.912094
N  -4.086774  -0.577997   0.702078
H  -6.830392  -1.206650   2.220896
H  -6.762868  -2.098672   0.660452
H  -7.222351  -0.331595   0.721968

