%chk=/home/boittier/MDCM/nms_sampling/cyanomethane_geom.xyz.dir/cyanomethane_2874.chk
%nproc=8
%mem=16000MB
#p B2PLYPD3/Def2QZVP 

cyanomethane

0 1
C  -6.590540  -1.096600   1.163281
C  -5.211595  -0.807639   0.877251
N  -4.100738  -0.533033   0.715483
H  -6.642615  -1.282391   2.216240
H  -6.802264  -2.064992   0.761428
H  -7.278375  -0.330372   0.913399

