%chk=/home/boittier/MDCM/nms_sampling/cyanomethane_geom.xyz.dir/cyanomethane_3268.chk
%nproc=8
%mem=16000MB
#p B2PLYPD3/Def2QZVP 

cyanomethane

0 1
C  -6.578178  -1.094633   1.146791
C  -5.200923  -0.839128   0.932722
N  -4.105067  -0.509714   0.692528
H  -6.816728  -1.302958   2.278521
H  -6.952629  -2.054212   0.635616
H  -7.174327  -0.261238   0.869071

