%chk=/home/boittier/MDCM/nms_sampling/cyanomethane_geom.xyz.dir/cyanomethane_2057.chk
%nproc=8
%mem=16000MB
#p B2PLYPD3/Def2QZVP 

cyanomethane

0 1
C  -6.600065  -1.118368   1.159887
C  -5.196876  -0.796939   0.891025
N  -4.087061  -0.532404   0.711700
H  -6.816157  -1.214944   2.261307
H  -6.937900  -2.013926   0.722666
H  -7.225304  -0.323567   0.847613

