%chk=/home/boittier/MDCM/nms_sampling/cyanomethane_geom.xyz.dir/cyanomethane_3001.chk
%nproc=8
%mem=16000MB
#p B2PLYPD3/Def2QZVP 

cyanomethane

0 1
C  -6.598358  -1.118056   1.175215
C  -5.189415  -0.749441   0.893542
N  -4.087163  -0.568949   0.707350
H  -6.796260  -1.205453   2.230317
H  -6.745830  -2.084928   0.687273
H  -7.547927  -0.335610   0.752126

