%chk=/home/boittier/MDCM/nms_sampling/cyanomethane_geom.xyz.dir/cyanomethane_1477.chk
%nproc=8
%mem=16000MB
#p B2PLYPD3/Def2QZVP 

cyanomethane

0 1
C  -6.596494  -1.110958   1.159150
C  -5.201295  -0.798642   0.885729
N  -4.098337  -0.534425   0.716097
H  -6.796828  -1.240161   2.245297
H  -6.808551  -2.033390   0.729112
H  -7.205891  -0.319266   0.868335

