%chk=/home/boittier/MDCM/nms_sampling/cyanomethane_geom.xyz.dir/cyanomethane_2096.chk
%nproc=8
%mem=16000MB
#p B2PLYPD3/Def2QZVP 

cyanomethane

0 1
C  -6.589643  -1.110968   1.149413
C  -5.208255  -0.796148   0.946355
N  -4.098446  -0.536391   0.683353
H  -6.743656  -1.188775   2.222883
H  -6.813214  -2.027840   0.702566
H  -7.255181  -0.366618   0.769200
