%chk=/home/boittier/MDCM/nms_sampling/cyanomethane_geom.xyz.dir/cyanomethane_730.chk
%nproc=8
%mem=16000MB
#p B2PLYPD3/Def2QZVP 

cyanomethane

0 1
C  -6.598385  -1.114655   1.162423
C  -5.203736  -0.793312   0.923105
N  -4.094988  -0.535770   0.691883
H  -6.677961  -1.229050   2.212001
H  -6.887706  -2.041622   0.678240
H  -7.240603  -0.309410   0.806090
