%chk=/home/boittier/MDCM/nms_sampling/cyanomethane_geom.xyz.dir/cyanomethane_1783.chk
%nproc=8
%mem=16000MB
#p B2PLYPD3/Def2QZVP 

cyanomethane

0 1
C  -6.593952  -1.107864   1.175370
C  -5.202297  -0.822067   0.894266
N  -4.101077  -0.521192   0.708440
H  -6.720470  -1.203360   2.239839
H  -6.872536  -2.083762   0.665430
H  -7.198696  -0.245879   0.772234

