%chk=/home/boittier/MDCM/nms_sampling/cyanomethane_geom.xyz.dir/cyanomethane_171.chk
%nproc=8
%mem=16000MB
#p B2PLYPD3/Def2QZVP 

cyanomethane

0 1
C  -6.601364  -1.110575   1.163773
C  -5.199753  -0.793708   0.890655
N  -4.091531  -0.536832   0.713154
H  -6.811191  -1.250828   2.256643
H  -6.831663  -2.056321   0.686221
H  -7.224066  -0.310986   0.832392
