%chk=/home/boittier/MDCM/nms_sampling/cyanomethane_geom.xyz.dir/cyanomethane_2656.chk
%nproc=8
%mem=16000MB
#p B2PLYPD3/Def2QZVP 

cyanomethane

0 1
C  -6.619290  -1.142148   1.168845
C  -5.197823  -0.805760   0.873197
N  -4.079685  -0.526735   0.723187
H  -6.837465  -1.060850   2.228757
H  -6.852306  -2.002032   0.779174
H  -7.148054  -0.206797   0.787445
