%chk=/home/boittier/MDCM/nms_sampling/cyanomethane_geom.xyz.dir/cyanomethane_3496.chk
%nproc=8
%mem=16000MB
#p B2PLYPD3/Def2QZVP 

cyanomethane

0 1
C  -6.617319  -1.095549   1.154129
C  -5.201406  -0.819355   0.971410
N  -4.080600  -0.528332   0.668100
H  -6.674110  -1.179676   2.152901
H  -6.784895  -2.110539   0.695499
H  -7.350244  -0.309427   0.717089

