%chk=/home/boittier/MDCM/nms_sampling/cyanomethane_geom.xyz.dir/cyanomethane_1879.chk
%nproc=8
%mem=16000MB
#p B2PLYPD3/Def2QZVP 

cyanomethane

0 1
C  -6.595817  -1.120307   1.151175
C  -5.205585  -0.766864   0.918043
N  -4.096812  -0.551904   0.697873
H  -6.746669  -1.253073   2.231996
H  -6.773966  -2.006964   0.700900
H  -7.269606  -0.345534   0.860605
