%chk=/home/boittier/MDCM/nms_sampling/cyanomethane_geom.xyz.dir/cyanomethane_3582.chk
%nproc=8
%mem=16000MB
#p B2PLYPD3/Def2QZVP 

cyanomethane

0 1
C  -6.599922  -1.092569   1.164872
C  -5.191494  -0.869093   0.919010
N  -4.084866  -0.498161   0.692677
H  -6.723180  -1.221453   2.166113
H  -6.998856  -1.930383   0.684418
H  -7.355786  -0.312921   0.866918

