%chk=/home/boittier/MDCM/nms_sampling/cyanomethane_geom.xyz.dir/cyanomethane_1743.chk
%nproc=8
%mem=16000MB
#p B2PLYPD3/Def2QZVP 

cyanomethane

0 1
C  -6.583164  -1.108999   1.177842
C  -5.201582  -0.827090   0.903467
N  -4.100863  -0.516622   0.700761
H  -6.711918  -1.220855   2.195959
H  -6.985005  -1.992158   0.641044
H  -7.237028  -0.299718   0.798538
