%chk=/home/boittier/MDCM/nms_sampling/cyanomethane_geom.xyz.dir/cyanomethane_2750.chk
%nproc=8
%mem=16000MB
#p B2PLYPD3/Def2QZVP 

cyanomethane

0 1
C  -6.588805  -1.095563   1.176115
C  -5.206552  -0.807196   0.856562
N  -4.094325  -0.534149   0.727905
H  -6.771913  -1.307449   2.196087
H  -6.802363  -2.027279   0.709528
H  -7.321109  -0.344350   0.910460

