%chk=/home/boittier/MDCM/nms_sampling/cyanomethane_geom.xyz.dir/cyanomethane_215.chk
%nproc=8
%mem=16000MB
#p B2PLYPD3/Def2QZVP 

cyanomethane

0 1
C  -6.606555  -1.119019   1.163503
C  -5.199506  -0.789122   0.925758
N  -4.089054  -0.536709   0.692534
H  -6.741872  -1.209610   2.224852
H  -6.892595  -2.067822   0.661797
H  -7.207604  -0.287806   0.765236
