%chk=/home/boittier/MDCM/nms_sampling/cyanomethane_geom.xyz.dir/cyanomethane_13.chk
%nproc=8
%mem=16000MB
#p B2PLYPD3/Def2QZVP 

cyanomethane

0 1
C  -6.594977  -1.116311   1.161732
C  -5.200110  -0.789967   0.925971
N  -4.093918  -0.536798   0.692005
H  -6.752918  -1.237740   2.232919
H  -6.908064  -2.021123   0.644124
H  -7.246488  -0.322695   0.795140
