%chk=/home/boittier/MDCM/nms_sampling/cyanomethane_geom.xyz.dir/cyanomethane_2592.chk
%nproc=8
%mem=16000MB
#p B2PLYPD3/Def2QZVP 

cyanomethane

0 1
C  -6.566659  -1.114349   1.169106
C  -5.209956  -0.764497   0.943034
N  -4.106659  -0.548802   0.678163
H  -6.652876  -1.315734   2.279779
H  -7.007305  -2.078305   0.538591
H  -7.292483  -0.327594   0.752519
