%chk=/home/boittier/MDCM/nms_sampling/cyanomethane_geom.xyz.dir/cyanomethane_551.chk
%nproc=8
%mem=16000MB
#p B2PLYPD3/Def2QZVP 

cyanomethane

0 1
C  -6.600003  -1.113137   1.171827
C  -5.201525  -0.810745   0.906144
N  -4.096282  -0.525693   0.702623
H  -6.734419  -1.193126   2.236535
H  -6.886647  -2.053056   0.660927
H  -7.175324  -0.292215   0.755966
