%chk=/home/boittier/MDCM/nms_sampling/cyanomethane_geom.xyz.dir/cyanomethane_1573.chk
%nproc=8
%mem=16000MB
#p B2PLYPD3/Def2QZVP 

cyanomethane

0 1
C  -6.589332  -1.104951   1.159156
C  -5.208265  -0.808054   0.886922
N  -4.099335  -0.528459   0.716383
H  -6.806988  -1.273216   2.287854
H  -6.827543  -2.058421   0.683922
H  -7.165755  -0.296252   0.863373

