%chk=/home/boittier/MDCM/nms_sampling/cyanomethane_geom.xyz.dir/cyanomethane_665.chk
%nproc=8
%mem=16000MB
#p B2PLYPD3/Def2QZVP 

cyanomethane

0 1
C  -6.589584  -1.112380   1.168400
C  -5.203896  -0.796148   0.890783
N  -4.098334  -0.536551   0.713018
H  -6.819089  -1.210636   2.246527
H  -6.805912  -2.026879   0.683426
H  -7.240579  -0.339178   0.792034
