%chk=/home/boittier/MDCM/nms_sampling/cyanomethane_geom.xyz.dir/cyanomethane_1484.chk
%nproc=8
%mem=16000MB
#p B2PLYPD3/Def2QZVP 

cyanomethane

0 1
C  -6.597131  -1.103199   1.170648
C  -5.205239  -0.824397   0.898465
N  -4.093959  -0.518545   0.705353
H  -6.702910  -1.250993   2.235183
H  -6.928889  -2.061689   0.662529
H  -7.185161  -0.275352   0.821116
