%chk=/home/boittier/MDCM/nms_sampling/cyanomethane_geom.xyz.dir/cyanomethane_434.chk
%nproc=8
%mem=16000MB
#p B2PLYPD3/Def2QZVP 

cyanomethane

0 1
C  -6.597416  -1.119286   1.161359
C  -5.203726  -0.770071   0.907924
N  -4.095339  -0.549308   0.703858
H  -6.784622  -1.228906   2.264649
H  -6.797785  -2.068538   0.673776
H  -7.232095  -0.323209   0.785579

