%chk=/home/boittier/MDCM/nms_sampling/cyanomethane_geom.xyz.dir/cyanomethane_955.chk
%nproc=8
%mem=16000MB
#p B2PLYPD3/Def2QZVP 

cyanomethane

0 1
C  -6.594951  -1.115962   1.160416
C  -5.204033  -0.770929   0.906927
N  -4.095906  -0.549318   0.702604
H  -6.748413  -1.251392   2.248419
H  -6.820606  -2.043820   0.685686
H  -7.263164  -0.352522   0.820937

