%chk=/home/boittier/MDCM/nms_sampling/cyanomethane_geom.xyz.dir/cyanomethane_3556.chk
%nproc=8
%mem=16000MB
#p B2PLYPD3/Def2QZVP 

cyanomethane

0 1
C  -6.593641  -1.082871   1.154459
C  -5.191870  -0.866340   0.923037
N  -4.088567  -0.501547   0.691944
H  -6.739262  -1.246328   2.212958
H  -6.974260  -1.974607   0.708863
H  -7.384542  -0.345627   0.878148
