%chk=/home/boittier/MDCM/nms_sampling/cyanomethane_geom.xyz.dir/cyanomethane_886.chk
%nproc=8
%mem=16000MB
#p B2PLYPD3/Def2QZVP 

cyanomethane

0 1
C  -6.598203  -1.102314   1.167227
C  -5.202625  -0.815853   0.906888
N  -4.096543  -0.525049   0.702774
H  -6.739966  -1.241162   2.238343
H  -6.855109  -2.043934   0.657850
H  -7.206649  -0.325203   0.796362
