%chk=/home/boittier/MDCM/nms_sampling/cyanomethane_geom.xyz.dir/cyanomethane_385.chk
%nproc=8
%mem=16000MB
#p B2PLYPD3/Def2QZVP 

cyanomethane

0 1
C  -6.588088  -1.119829   1.164786
C  -5.202383  -0.781241   0.925127
N  -4.097785  -0.541271   0.693100
H  -6.777729  -1.219064   2.219802
H  -6.894318  -2.050165   0.649420
H  -7.236591  -0.314928   0.763208

