%chk=/home/boittier/MDCM/nms_sampling/cyanomethane_geom.xyz.dir/cyanomethane_2276.chk
%nproc=8
%mem=16000MB
#p B2PLYPD3/Def2QZVP 

cyanomethane

0 1
C  -6.608163  -1.106164   1.162444
C  -5.201089  -0.801752   0.881900
N  -4.086442  -0.533147   0.721424
H  -6.891853  -1.222468   2.291529
H  -6.779414  -2.069607   0.700098
H  -7.170696  -0.341858   0.796734

