%chk=/home/boittier/MDCM/nms_sampling/cyanomethane_geom.xyz.dir/cyanomethane_1152.chk
%nproc=8
%mem=16000MB
#p B2PLYPD3/Def2QZVP 

cyanomethane

0 1
C  -6.606612  -1.113454   1.154372
C  -5.200423  -0.790155   0.926802
N  -4.088688  -0.538266   0.692173
H  -6.731314  -1.234886   2.231382
H  -6.854369  -2.018596   0.687199
H  -7.250812  -0.343563   0.822255
