%chk=/home/boittier/MDCM/nms_sampling/cyanomethane_geom.xyz.dir/cyanomethane_1788.chk
%nproc=8
%mem=16000MB
#p B2PLYPD3/Def2QZVP 

cyanomethane

0 1
C  -6.612887  -1.122587   1.167660
C  -5.198879  -0.798090   0.934289
N  -4.085337  -0.531211   0.687941
H  -6.742173  -1.173899   2.176782
H  -6.895735  -2.039183   0.655330
H  -7.187505  -0.278520   0.737782

