%chk=/home/boittier/MDCM/nms_sampling/cyanomethane_geom.xyz.dir/cyanomethane_314.chk
%nproc=8
%mem=16000MB
#p B2PLYPD3/Def2QZVP 

cyanomethane

0 1
C  -6.595820  -1.110727   1.165886
C  -5.205717  -0.802983   0.895606
N  -4.096543  -0.532472   0.710085
H  -6.778897  -1.212926   2.231963
H  -6.803204  -2.023588   0.695077
H  -7.210806  -0.333060   0.807731
