%chk=/home/boittier/MDCM/nms_sampling/cyanomethane_geom.xyz.dir/cyanomethane_898.chk
%nproc=8
%mem=16000MB
#p B2PLYPD3/Def2QZVP 

cyanomethane

0 1
C  -6.598140  -1.106230   1.167100
C  -5.198475  -0.819690   0.911605
N  -4.091780  -0.523917   0.699822
H  -6.760529  -1.196529   2.251783
H  -6.881316  -2.032459   0.663106
H  -7.278160  -0.311296   0.767908

