%chk=/home/boittier/MDCM/nms_sampling/cyanomethane_geom.xyz.dir/cyanomethane_2520.chk
%nproc=8
%mem=16000MB
#p B2PLYPD3/Def2QZVP 

cyanomethane

0 1
C  -6.569426  -1.092046   1.154591
C  -5.211907  -0.807192   0.945810
N  -4.100359  -0.532399   0.680878
H  -6.734845  -1.287483   2.202247
H  -6.892367  -2.056008   0.657830
H  -7.356578  -0.374982   0.811403
