%chk=/home/boittier/MDCM/nms_sampling/cyanomethane_geom.xyz.dir/cyanomethane_3079.chk
%nproc=8
%mem=16000MB
#p B2PLYPD3/Def2QZVP 

cyanomethane

0 1
C  -6.601957  -1.091491   1.192735
C  -5.193055  -0.798382   0.841987
N  -4.089729  -0.536423   0.735588
H  -6.830125  -1.381309   2.205029
H  -6.861805  -2.079362   0.611149
H  -7.271316  -0.327540   0.878812
