%chk=/home/boittier/MDCM/nms_sampling/cyanomethane_geom.xyz.dir/cyanomethane_336.chk
%nproc=8
%mem=16000MB
#p B2PLYPD3/Def2QZVP 

cyanomethane

0 1
C  -6.598112  -1.114691   1.158465
C  -5.204285  -0.776450   0.902210
N  -4.095848  -0.546814   0.705779
H  -6.747150  -1.243859   2.255152
H  -6.796621  -2.046492   0.704555
H  -7.247904  -0.345431   0.831782

