%chk=/home/boittier/MDCM/nms_sampling/cyanomethane_geom.xyz.dir/cyanomethane_3494.chk
%nproc=8
%mem=16000MB
#p B2PLYPD3/Def2QZVP 

cyanomethane

0 1
C  -6.576464  -1.100102   1.158052
C  -5.203454  -0.809365   0.972071
N  -4.106415  -0.534038   0.666627
H  -6.698650  -1.196081   2.132805
H  -6.801797  -2.037396   0.659592
H  -7.416925  -0.346144   0.731024

