%chk=/home/boittier/MDCM/nms_sampling/cyanomethane_geom.xyz.dir/cyanomethane_1582.chk
%nproc=8
%mem=16000MB
#p B2PLYPD3/Def2QZVP 

cyanomethane

0 1
C  -6.599720  -1.123556   1.182224
C  -5.199519  -0.753135   0.891624
N  -4.095839  -0.559430   0.707459
H  -6.715685  -1.222486   2.183486
H  -6.814672  -2.083108   0.671423
H  -7.297860  -0.330473   0.754468

