%chk=/home/boittier/MDCM/nms_sampling/cyanomethane_geom.xyz.dir/cyanomethane_1058.chk
%nproc=8
%mem=16000MB
#p B2PLYPD3/Def2QZVP 

cyanomethane

0 1
C  -6.596960  -1.113964   1.156272
C  -5.201427  -0.792100   0.928468
N  -4.090653  -0.536788   0.691220
H  -6.755366  -1.226493   2.243449
H  -6.891272  -2.027027   0.672535
H  -7.267017  -0.334622   0.800268

