%chk=/home/boittier/MDCM/nms_sampling/cyanomethane_geom.xyz.dir/cyanomethane_3230.chk
%nproc=8
%mem=16000MB
#p B2PLYPD3/Def2QZVP 

cyanomethane

0 1
C  -6.590526  -1.132322   1.164697
C  -5.210812  -0.778138   0.848720
N  -4.096575  -0.538747   0.734179
H  -6.799046  -1.194254   2.215640
H  -6.918085  -2.015586   0.825001
H  -7.071653  -0.327264   0.907789

