%chk=/home/boittier/MDCM/nms_sampling/cyanomethane_geom.xyz.dir/cyanomethane_3579.chk
%nproc=8
%mem=16000MB
#p B2PLYPD3/Def2QZVP 

cyanomethane

0 1
C  -6.587725  -1.109521   1.175344
C  -5.202470  -0.825805   0.906017
N  -4.087326  -0.517690   0.697332
H  -6.705445  -1.194015   2.149123
H  -7.047347  -1.965321   0.704988
H  -7.303859  -0.353283   0.813553
