%chk=/home/boittier/MDCM/nms_sampling/cyanomethane_geom.xyz.dir/cyanomethane_3053.chk
%nproc=8
%mem=16000MB
#p B2PLYPD3/Def2QZVP 

cyanomethane

0 1
C  -6.592739  -1.120901   1.162758
C  -5.202357  -0.738717   0.899438
N  -4.106078  -0.573116   0.705270
H  -6.683505  -1.193310   2.235461
H  -6.654920  -2.140267   0.761729
H  -7.397103  -0.331121   0.772109

