%chk=/home/boittier/MDCM/nms_sampling/cyanomethane_geom.xyz.dir/cyanomethane_3294.chk
%nproc=8
%mem=16000MB
#p B2PLYPD3/Def2QZVP 

cyanomethane

0 1
C  -6.616128  -1.097909   1.166669
C  -5.193986  -0.782373   0.945626
N  -4.089927  -0.547139   0.677756
H  -6.619660  -1.300060   2.097188
H  -6.798268  -2.076651   0.658416
H  -7.361947  -0.361187   0.805965
