%chk=/home/boittier/MDCM/nms_sampling/cyanomethane_geom.xyz.dir/cyanomethane_642.chk
%nproc=8
%mem=16000MB
#p B2PLYPD3/Def2QZVP 

cyanomethane

0 1
C  -6.595520  -1.114415   1.164284
C  -5.205398  -0.788204   0.898473
N  -4.096528  -0.540330   0.708371
H  -6.773877  -1.232795   2.229349
H  -6.795351  -2.045363   0.690379
H  -7.230271  -0.311303   0.820220
