%chk=/home/boittier/MDCM/nms_sampling/cyanomethane_geom.xyz.dir/cyanomethane_3085.chk
%nproc=8
%mem=16000MB
#p B2PLYPD3/Def2QZVP 

cyanomethane

0 1
C  -6.621747  -1.111903   1.164037
C  -5.200604  -0.749636   0.882537
N  -4.081313  -0.559617   0.718333
H  -6.817747  -1.389028   2.238179
H  -6.754076  -2.061508   0.628399
H  -7.180348  -0.340152   0.911802
