%chk=/home/boittier/MDCM/nms_sampling/cyanomethane_geom.xyz.dir/cyanomethane_1570.chk
%nproc=8
%mem=16000MB
#p B2PLYPD3/Def2QZVP 

cyanomethane

0 1
C  -6.584082  -1.096577   1.167147
C  -5.207878  -0.825957   0.911701
N  -4.097968  -0.521098   0.698728
H  -6.729203  -1.260556   2.222487
H  -6.881995  -1.998764   0.644638
H  -7.278250  -0.349518   0.821486
