%chk=/home/boittier/MDCM/nms_sampling/cyanomethane_geom.xyz.dir/cyanomethane_1888.chk
%nproc=8
%mem=16000MB
#p B2PLYPD3/Def2QZVP 

cyanomethane

0 1
C  -6.606042  -1.112033   1.162689
C  -5.195025  -0.794458   0.872776
N  -4.089693  -0.536043   0.722381
H  -6.829336  -1.235052   2.260734
H  -6.849733  -1.992744   0.733247
H  -7.214831  -0.383772   0.865920
