%chk=/home/boittier/MDCM/nms_sampling/cyanomethane_geom.xyz.dir/cyanomethane_57.chk
%nproc=8
%mem=16000MB
#p B2PLYPD3/Def2QZVP 

cyanomethane

0 1
C  -6.595682  -1.110598   1.161165
C  -5.202892  -0.808973   0.910705
N  -4.098015  -0.528760   0.702363
H  -6.773875  -1.186203   2.223649
H  -6.827214  -2.047564   0.713470
H  -7.206694  -0.317363   0.785677

