%chk=/home/boittier/MDCM/nms_sampling/cyanomethane_geom.xyz.dir/cyanomethane_3122.chk
%nproc=8
%mem=16000MB
#p B2PLYPD3/Def2QZVP 

cyanomethane

0 1
C  -6.600661  -1.109298   1.161529
C  -5.201184  -0.753446   0.872851
N  -4.081855  -0.563630   0.717903
H  -6.745259  -1.298104   2.323793
H  -6.809085  -2.022104   0.708701
H  -7.440983  -0.429323   0.880368

