%chk=/home/boittier/MDCM/nms_sampling/cyanomethane_geom.xyz.dir/cyanomethane_2074.chk
%nproc=8
%mem=16000MB
#p B2PLYPD3/Def2QZVP 

cyanomethane

0 1
C  -6.608418  -1.106607   1.179270
C  -5.197913  -0.795707   0.879879
N  -4.093836  -0.534634   0.714390
H  -6.703433  -1.268636   2.233875
H  -6.879544  -2.055294   0.656141
H  -7.188633  -0.345474   0.807866

