%chk=/home/boittier/MDCM/nms_sampling/cyanomethane_geom.xyz.dir/cyanomethane_1221.chk
%nproc=8
%mem=16000MB
#p B2PLYPD3/Def2QZVP 

cyanomethane

0 1
C  -6.595072  -1.098532   1.174758
C  -5.198546  -0.831253   0.914143
N  -4.093155  -0.517489   0.698817
H  -6.784054  -1.209142   2.254076
H  -6.900125  -2.047168   0.610545
H  -7.254112  -0.321171   0.721913

