%chk=/home/boittier/MDCM/nms_sampling/cyanomethane_geom.xyz.dir/cyanomethane_2342.chk
%nproc=8
%mem=16000MB
#p B2PLYPD3/Def2QZVP 

cyanomethane

0 1
C  -6.594840  -1.126705   1.152645
C  -5.203351  -0.780148   0.946010
N  -4.091087  -0.539174   0.680791
H  -6.724672  -1.219127   2.223839
H  -6.961526  -1.989268   0.660548
H  -7.223171  -0.328005   0.806043
