%chk=/home/boittier/MDCM/nms_sampling/cyanomethane_geom.xyz.dir/cyanomethane_3453.chk
%nproc=8
%mem=16000MB
#p B2PLYPD3/Def2QZVP 

cyanomethane

0 1
C  -6.594466  -1.128083   1.139450
C  -5.202205  -0.782639   0.962807
N  -4.105641  -0.542848   0.675835
H  -6.717364  -1.131042   2.195676
H  -6.762166  -2.069064   0.756126
H  -7.243664  -0.256309   0.773179

