%chk=/home/boittier/MDCM/nms_sampling/cyanomethane_geom.xyz.dir/cyanomethane_1444.chk
%nproc=8
%mem=16000MB
#p B2PLYPD3/Def2QZVP 

cyanomethane

0 1
C  -6.582735  -1.109197   1.164766
C  -5.202428  -0.798994   0.880755
N  -4.101445  -0.534933   0.720677
H  -6.885627  -1.253898   2.287109
H  -6.802795  -2.052906   0.666168
H  -7.233173  -0.293635   0.831741
