%chk=/home/boittier/MDCM/nms_sampling/cyanomethane_geom.xyz.dir/cyanomethane_774.chk
%nproc=8
%mem=16000MB
#p B2PLYPD3/Def2QZVP 

cyanomethane

0 1
C  -6.594843  -1.105701   1.166263
C  -5.204386  -0.785852   0.905935
N  -4.097145  -0.541316   0.703064
H  -6.745152  -1.284483   2.222327
H  -6.833161  -2.081927   0.660460
H  -7.232586  -0.330373   0.816737

