%chk=/home/boittier/MDCM/nms_sampling/cyanomethane_geom.xyz.dir/cyanomethane_1127.chk
%nproc=8
%mem=16000MB
#p B2PLYPD3/Def2QZVP 

cyanomethane

0 1
C  -6.591147  -1.110235   1.157925
C  -5.203811  -0.789523   0.936604
N  -4.094399  -0.538390   0.687938
H  -6.778427  -1.240755   2.234864
H  -6.871352  -2.049219   0.643914
H  -7.253542  -0.344981   0.770772

