%chk=/home/boittier/MDCM/nms_sampling/cyanomethane_geom.xyz.dir/cyanomethane_1390.chk
%nproc=8
%mem=16000MB
#p B2PLYPD3/Def2QZVP 

cyanomethane

0 1
C  -6.604149  -1.126442   1.159771
C  -5.198850  -0.772765   0.938496
N  -4.092409  -0.544511   0.685708
H  -6.729109  -1.197786   2.227648
H  -6.894767  -2.083260   0.662346
H  -7.208082  -0.280034   0.746771
