%chk=/home/boittier/MDCM/nms_sampling/cyanomethane_geom.xyz.dir/cyanomethane_213.chk
%nproc=8
%mem=16000MB
#p B2PLYPD3/Def2QZVP 

cyanomethane

0 1
C  -6.590720  -1.118514   1.157214
C  -5.202623  -0.794024   0.926446
N  -4.098736  -0.536348   0.693580
H  -6.771740  -1.192775   2.233283
H  -6.837174  -2.015228   0.680863
H  -7.252790  -0.314548   0.786726
