%chk=/home/boittier/MDCM/nms_sampling/cyanomethane_geom.xyz.dir/cyanomethane_3045.chk
%nproc=8
%mem=16000MB
#p B2PLYPD3/Def2QZVP 

cyanomethane

0 1
C  -6.565954  -1.091366   1.162684
C  -5.213888  -0.851744   0.894309
N  -4.102719  -0.506790   0.715109
H  -6.909950  -1.241445   2.334620
H  -6.859633  -2.063151   0.625169
H  -7.200908  -0.266189   0.793452

