%chk=/home/boittier/MDCM/nms_sampling/cyanomethane_geom.xyz.dir/cyanomethane_2636.chk
%nproc=8
%mem=16000MB
#p B2PLYPD3/Def2QZVP 

cyanomethane

0 1
C  -6.619934  -1.104083   1.186017
C  -5.194323  -0.799276   0.858517
N  -4.090044  -0.533018   0.728906
H  -6.778561  -1.256783   2.282012
H  -6.825530  -2.124138   0.642238
H  -7.125270  -0.307309   0.762225

