%chk=/home/boittier/MDCM/nms_sampling/cyanomethane_geom.xyz.dir/cyanomethane_419.chk
%nproc=8
%mem=16000MB
#p B2PLYPD3/Def2QZVP 

cyanomethane

0 1
C  -6.597286  -1.107877   1.156762
C  -5.200330  -0.810363   0.918195
N  -4.091043  -0.526838   0.697936
H  -6.787728  -1.242135   2.255713
H  -6.896183  -2.016524   0.665828
H  -7.233614  -0.322502   0.824838
