%chk=/home/boittier/MDCM/nms_sampling/cyanomethane_geom.xyz.dir/cyanomethane_3149.chk
%nproc=8
%mem=16000MB
#p B2PLYPD3/Def2QZVP 

cyanomethane

0 1
C  -6.590322  -1.085796   1.178215
C  -5.209598  -0.843408   0.892179
N  -4.099047  -0.512892   0.712448
H  -6.783122  -1.229481   2.235836
H  -6.810824  -2.155737   0.655251
H  -7.182928  -0.270459   0.734613
