%chk=/home/boittier/MDCM/nms_sampling/cyanomethane_geom.xyz.dir/cyanomethane_2091.chk
%nproc=8
%mem=16000MB
#p B2PLYPD3/Def2QZVP 

cyanomethane

0 1
C  -6.612009  -1.104058   1.166075
C  -5.195274  -0.808453   0.928873
N  -4.088429  -0.529231   0.687510
H  -6.655167  -1.227627   2.215189
H  -6.906697  -2.034157   0.659236
H  -7.275850  -0.353988   0.773333
