%chk=/home/boittier/MDCM/nms_sampling/cyanomethane_geom.xyz.dir/cyanomethane_819.chk
%nproc=8
%mem=16000MB
#p B2PLYPD3/Def2QZVP 

cyanomethane

0 1
C  -6.604134  -1.105802   1.174198
C  -5.200718  -0.799577   0.884437
N  -4.088874  -0.533362   0.713975
H  -6.767573  -1.266841   2.235421
H  -6.871305  -2.063758   0.662011
H  -7.219745  -0.320030   0.817036
