%chk=/home/boittier/MDCM/nms_sampling/cyanomethane_geom.xyz.dir/cyanomethane_974.chk
%nproc=8
%mem=16000MB
#p B2PLYPD3/Def2QZVP 

cyanomethane

0 1
C  -6.602428  -1.116461   1.175752
C  -5.198724  -0.797981   0.885103
N  -4.092739  -0.534019   0.713394
H  -6.760095  -1.196536   2.247309
H  -6.862286  -2.043693   0.676552
H  -7.227727  -0.303593   0.775784

