%chk=/home/boittier/MDCM/nms_sampling/cyanomethane_geom.xyz.dir/cyanomethane_1441.chk
%nproc=8
%mem=16000MB
#p B2PLYPD3/Def2QZVP 

cyanomethane

0 1
C  -6.597735  -1.131405   1.167452
C  -5.199141  -0.783686   0.883052
N  -4.088100  -0.540710   0.716405
H  -6.839831  -1.141666   2.276194
H  -6.873000  -2.002574   0.718504
H  -7.254337  -0.309125   0.780893
