%chk=/home/boittier/MDCM/nms_sampling/cyanomethane_geom.xyz.dir/cyanomethane_1903.chk
%nproc=8
%mem=16000MB
#p B2PLYPD3/Def2QZVP 

cyanomethane

0 1
C  -6.582694  -1.120939   1.173608
C  -5.202560  -0.795146   0.929002
N  -4.102230  -0.535231   0.686601
H  -6.675698  -1.170032   2.215378
H  -6.926622  -1.998253   0.633439
H  -7.308837  -0.326609   0.723646

