%chk=/home/boittier/MDCM/nms_sampling/cyanomethane_geom.xyz.dir/cyanomethane_1198.chk
%nproc=8
%mem=16000MB
#p B2PLYPD3/Def2QZVP 

cyanomethane

0 1
C  -6.589039  -1.109162   1.158354
C  -5.202903  -0.802352   0.911347
N  -4.098584  -0.530522   0.701977
H  -6.793378  -1.252886   2.249782
H  -6.884005  -2.044015   0.673062
H  -7.201993  -0.313489   0.828630
