%chk=/home/boittier/MDCM/nms_sampling/cyanomethane_geom.xyz.dir/cyanomethane_3437.chk
%nproc=8
%mem=16000MB
#p B2PLYPD3/Def2QZVP 

cyanomethane

0 1
C  -6.572176  -1.107884   1.170803
C  -5.210604  -0.810303   0.834708
N  -4.101688  -0.531104   0.743860
H  -6.903669  -1.191151   2.245938
H  -6.786766  -1.977900   0.795483
H  -7.255885  -0.393706   0.877370

