%chk=/home/boittier/MDCM/nms_sampling/cyanomethane_geom.xyz.dir/cyanomethane_332.chk
%nproc=8
%mem=16000MB
#p B2PLYPD3/Def2QZVP 

cyanomethane

0 1
C  -6.596228  -1.107772   1.165979
C  -5.202302  -0.798442   0.926706
N  -4.098212  -0.534537   0.691581
H  -6.712914  -1.237635   2.228518
H  -6.847519  -2.090495   0.638726
H  -7.245059  -0.287686   0.761161
