%chk=/home/boittier/MDCM/nms_sampling/cyanomethane_geom.xyz.dir/cyanomethane_1188.chk
%nproc=8
%mem=16000MB
#p B2PLYPD3/Def2QZVP 

cyanomethane

0 1
C  -6.588531  -1.121470   1.168169
C  -5.202863  -0.787954   0.889423
N  -4.098415  -0.537716   0.713376
H  -6.819853  -1.199348   2.272483
H  -6.871928  -2.039019   0.680286
H  -7.196996  -0.311276   0.784670
