%chk=/home/boittier/MDCM/nms_sampling/cyanomethane_geom.xyz.dir/cyanomethane_3336.chk
%nproc=8
%mem=16000MB
#p B2PLYPD3/Def2QZVP 

cyanomethane

0 1
C  -6.611569  -1.121138   1.143426
C  -5.193640  -0.752955   0.906280
N  -4.089043  -0.558257   0.704846
H  -6.791047  -1.254075   2.189958
H  -6.807645  -2.036392   0.807821
H  -7.251033  -0.390203   0.912342
