%chk=/home/boittier/MDCM/nms_sampling/cyanomethane_geom.xyz.dir/cyanomethane_455.chk
%nproc=8
%mem=16000MB
#p B2PLYPD3/Def2QZVP 

cyanomethane

0 1
C  -6.595468  -1.106212   1.173608
C  -5.204523  -0.800362   0.880921
N  -4.095962  -0.534553   0.716036
H  -6.760336  -1.254286   2.213249
H  -6.819301  -2.045716   0.686124
H  -7.238321  -0.324436   0.831769
