%chk=/home/boittier/MDCM/nms_sampling/cyanomethane_geom.xyz.dir/cyanomethane_1036.chk
%nproc=8
%mem=16000MB
#p B2PLYPD3/Def2QZVP 

cyanomethane

0 1
C  -6.594496  -1.111218   1.160319
C  -5.202657  -0.811919   0.914570
N  -4.098631  -0.525985   0.700825
H  -6.782807  -1.199702   2.245810
H  -6.848995  -2.051751   0.683419
H  -7.184709  -0.290607   0.785436

