%chk=/home/boittier/MDCM/nms_sampling/cyanomethane_geom.xyz.dir/cyanomethane_2992.chk
%nproc=8
%mem=16000MB
#p B2PLYPD3/Def2QZVP 

cyanomethane

0 1
C  -6.601927  -1.130296   1.164839
C  -5.199005  -0.817113   0.945151
N  -4.081631  -0.517432   0.685427
H  -6.868136  -1.132004   2.268532
H  -6.990727  -1.975461   0.577157
H  -7.153154  -0.253084   0.686665
