%chk=/home/boittier/MDCM/nms_sampling/cyanomethane_geom.xyz.dir/cyanomethane_40.chk
%nproc=8
%mem=16000MB
#p B2PLYPD3/Def2QZVP 

cyanomethane

0 1
C  -6.602058  -1.108797   1.166535
C  -5.198985  -0.806873   0.905314
N  -4.092726  -0.530875   0.703723
H  -6.760830  -1.201072   2.218862
H  -6.837594  -2.052483   0.698216
H  -7.253256  -0.314720   0.785643

