%chk=/home/boittier/MDCM/nms_sampling/cyanomethane_geom.xyz.dir/cyanomethane_289.chk
%nproc=8
%mem=16000MB
#p B2PLYPD3/Def2QZVP 

cyanomethane

0 1
C  -6.587532  -1.107693   1.168413
C  -5.203730  -0.806816   0.904101
N  -4.098497  -0.528296   0.703314
H  -6.751467  -1.250750   2.240082
H  -6.915762  -2.050616   0.653865
H  -7.221260  -0.305649   0.807512

