%chk=/home/boittier/MDCM/nms_sampling/cyanomethane_geom.xyz.dir/cyanomethane_1531.chk
%nproc=8
%mem=16000MB
#p B2PLYPD3/Def2QZVP 

cyanomethane

0 1
C  -6.585168  -1.122225   1.173180
C  -5.205237  -0.763826   0.893936
N  -4.098467  -0.552151   0.706410
H  -6.726597  -1.245468   2.244498
H  -6.879575  -2.010679   0.654332
H  -7.293851  -0.363987   0.802530

