%chk=/home/boittier/MDCM/nms_sampling/cyanomethane_geom.xyz.dir/cyanomethane_3017.chk
%nproc=8
%mem=16000MB
#p B2PLYPD3/Def2QZVP 

cyanomethane

0 1
C  -6.569872  -1.113621   1.135309
C  -5.205278  -0.772334   0.983438
N  -4.109048  -0.547277   0.665872
H  -6.811036  -1.287195   2.251299
H  -6.841987  -1.982996   0.600064
H  -7.287090  -0.383236   0.808864

