%chk=/home/boittier/MDCM/nms_sampling/cyanomethane_geom.xyz.dir/cyanomethane_2031.chk
%nproc=8
%mem=16000MB
#p B2PLYPD3/Def2QZVP 

cyanomethane

0 1
C  -6.612173  -1.098628   1.169897
C  -5.194717  -0.813394   0.896331
N  -4.087749  -0.526272   0.708462
H  -6.768932  -1.294395   2.221952
H  -6.868222  -2.054666   0.644479
H  -7.212792  -0.312382   0.838677
