%chk=/home/boittier/MDCM/nms_sampling/cyanomethane_geom.xyz.dir/cyanomethane_2780.chk
%nproc=8
%mem=16000MB
#p B2PLYPD3/Def2QZVP 

cyanomethane

0 1
C  -6.600318  -1.119262   1.161303
C  -5.200386  -0.815595   0.893259
N  -4.102888  -0.518549   0.711274
H  -6.740418  -1.217399   2.302628
H  -6.929678  -2.014792   0.673933
H  -7.043256  -0.272493   0.834500

