%chk=/home/boittier/MDCM/nms_sampling/cyanomethane_geom.xyz.dir/cyanomethane_399.chk
%nproc=8
%mem=16000MB
#p B2PLYPD3/Def2QZVP 

cyanomethane

0 1
C  -6.595843  -1.120839   1.157937
C  -5.202621  -0.783353   0.930657
N  -4.098116  -0.539926   0.689356
H  -6.710411  -1.214784   2.207997
H  -6.880822  -2.038865   0.687156
H  -7.215470  -0.312626   0.798474

