%chk=/home/boittier/MDCM/nms_sampling/cyanomethane_geom.xyz.dir/cyanomethane_2907.chk
%nproc=8
%mem=16000MB
#p B2PLYPD3/Def2QZVP 

cyanomethane

0 1
C  -6.597674  -1.117708   1.141523
C  -5.209727  -0.782468   0.979855
N  -4.095036  -0.545559   0.667607
H  -6.749097  -1.164607   2.126257
H  -6.706969  -2.055761   0.725284
H  -7.287235  -0.312784   0.757428
