%chk=/home/boittier/MDCM/nms_sampling/cyanomethane_geom.xyz.dir/cyanomethane_2213.chk
%nproc=8
%mem=16000MB
#p B2PLYPD3/Def2QZVP 

cyanomethane

0 1
C  -6.608600  -1.116783   1.150918
C  -5.201870  -0.781390   0.911679
N  -4.087367  -0.543818   0.701726
H  -6.764849  -1.253791   2.205603
H  -6.794614  -2.018524   0.728539
H  -7.251669  -0.316641   0.887923

