%chk=/home/boittier/MDCM/nms_sampling/cyanomethane_geom.xyz.dir/cyanomethane_980.chk
%nproc=8
%mem=16000MB
#p B2PLYPD3/Def2QZVP 

cyanomethane

0 1
C  -6.596255  -1.116427   1.167241
C  -5.199236  -0.807054   0.911319
N  -4.093049  -0.527252   0.701310
H  -6.801740  -1.205714   2.234689
H  -6.906374  -2.032927   0.650938
H  -7.206117  -0.278627   0.779135

