%chk=/home/boittier/MDCM/nms_sampling/cyanomethane_geom.xyz.dir/cyanomethane_152.chk
%nproc=8
%mem=16000MB
#p B2PLYPD3/Def2QZVP 

cyanomethane

0 1
C  -6.596070  -1.118509   1.165796
C  -5.204676  -0.803421   0.918005
N  -4.096223  -0.529002   0.696991
H  -6.741737  -1.198411   2.224775
H  -6.882182  -2.042659   0.659962
H  -7.182144  -0.269642   0.775744

