%chk=/home/boittier/MDCM/nms_sampling/cyanomethane_geom.xyz.dir/cyanomethane_1794.chk
%nproc=8
%mem=16000MB
#p B2PLYPD3/Def2QZVP 

cyanomethane

0 1
C  -6.598754  -1.109923   1.166776
C  -5.199912  -0.798847   0.886666
N  -4.089221  -0.533377   0.716947
H  -6.879744  -1.224985   2.288538
H  -6.851229  -2.059988   0.670562
H  -7.199643  -0.331164   0.783658
