%chk=/home/boittier/MDCM/nms_sampling/cyanomethane_geom.xyz.dir/cyanomethane_2794.chk
%nproc=8
%mem=16000MB
#p B2PLYPD3/Def2QZVP 

cyanomethane

0 1
C  -6.573189  -1.147265   1.165075
C  -5.209840  -0.766225   0.853733
N  -4.106145  -0.546804   0.733149
H  -6.854755  -1.097417   2.358976
H  -6.873375  -1.984176   0.764638
H  -7.154002  -0.321803   0.790331

