%chk=/home/boittier/MDCM/nms_sampling/cyanomethane_geom.xyz.dir/cyanomethane_2629.chk
%nproc=8
%mem=16000MB
#p B2PLYPD3/Def2QZVP 

cyanomethane

0 1
C  -6.597666  -1.124243   1.173814
C  -5.208286  -0.784998   0.934807
N  -4.095258  -0.539909   0.682199
H  -6.597113  -1.129904   2.121524
H  -6.906443  -2.081743   0.725980
H  -7.251216  -0.306296   0.706474
