%chk=/home/boittier/MDCM/nms_sampling/cyanomethane_geom.xyz.dir/cyanomethane_1990.chk
%nproc=8
%mem=16000MB
#p B2PLYPD3/Def2QZVP 

cyanomethane

0 1
C  -6.582699  -1.129370   1.160081
C  -5.207322  -0.755110   0.921732
N  -4.099844  -0.554095   0.695849
H  -6.789149  -1.219637   2.280597
H  -6.877728  -2.073855   0.648942
H  -7.218759  -0.312439   0.756699

