%chk=/home/boittier/MDCM/nms_sampling/cyanomethane_geom.xyz.dir/cyanomethane_3413.chk
%nproc=8
%mem=16000MB
#p B2PLYPD3/Def2QZVP 

cyanomethane

0 1
C  -6.579091  -1.088736   1.166679
C  -5.210241  -0.868916   0.904854
N  -4.097506  -0.500394   0.705303
H  -6.798525  -1.128839   2.213684
H  -6.863829  -2.060758   0.746881
H  -7.265199  -0.315104   0.744934
