%chk=/home/boittier/MDCM/nms_sampling/cyanomethane_geom.xyz.dir/cyanomethane_2593.chk
%nproc=8
%mem=16000MB
#p B2PLYPD3/Def2QZVP 

cyanomethane

0 1
C  -6.607417  -1.115754   1.157293
C  -5.191160  -0.773975   0.858225
N  -4.082995  -0.545519   0.732964
H  -6.934669  -1.312025   2.314530
H  -6.866816  -2.045282   0.708048
H  -7.213755  -0.315984   0.929244
