%chk=/home/boittier/MDCM/nms_sampling/cyanomethane_geom.xyz.dir/cyanomethane_1978.chk
%nproc=8
%mem=16000MB
#p B2PLYPD3/Def2QZVP 

cyanomethane

0 1
C  -6.596804  -1.108645   1.171390
C  -5.200842  -0.804946   0.907267
N  -4.091662  -0.528091   0.699976
H  -6.727169  -1.247739   2.242162
H  -6.964404  -2.018187   0.637662
H  -7.216746  -0.352228   0.790315
