%chk=/home/boittier/MDCM/nms_sampling/cyanomethane_geom.xyz.dir/cyanomethane_2696.chk
%nproc=8
%mem=16000MB
#p B2PLYPD3/Def2QZVP 

cyanomethane

0 1
C  -6.599533  -1.092528   1.162882
C  -5.203062  -0.867531   0.920196
N  -4.104563  -0.498900   0.693577
H  -6.614416  -1.235995   2.201135
H  -6.845328  -1.954339   0.657792
H  -7.208694  -0.279823   0.863088
