%chk=/home/boittier/MDCM/nms_sampling/cyanomethane_geom.xyz.dir/cyanomethane_151.chk
%nproc=8
%mem=16000MB
#p B2PLYPD3/Def2QZVP 

cyanomethane

0 1
C  -6.605145  -1.106379   1.165095
C  -5.199456  -0.796470   0.927442
N  -4.091581  -0.535678   0.691222
H  -6.723982  -1.242213   2.225115
H  -6.851757  -2.068131   0.641109
H  -7.250083  -0.328794   0.763927

