%chk=/home/boittier/MDCM/nms_sampling/cyanomethane_geom.xyz.dir/cyanomethane_2334.chk
%nproc=8
%mem=16000MB
#p B2PLYPD3/Def2QZVP 

cyanomethane

0 1
C  -6.591000  -1.107201   1.160228
C  -5.203204  -0.819037   0.910111
N  -4.101382  -0.519599   0.702559
H  -6.773509  -1.235898   2.256549
H  -6.917486  -2.022779   0.669397
H  -7.122787  -0.327760   0.815319

