%chk=/home/boittier/MDCM/nms_sampling/cyanomethane_geom.xyz.dir/cyanomethane_2848.chk
%nproc=8
%mem=16000MB
#p B2PLYPD3/Def2QZVP 

cyanomethane

0 1
C  -6.608216  -1.098373   1.161327
C  -5.203204  -0.803909   0.946104
N  -4.093883  -0.536823   0.681225
H  -6.670274  -1.218531   2.118444
H  -6.722308  -2.070429   0.698621
H  -7.317994  -0.343787   0.768280
