%chk=/home/boittier/MDCM/nms_sampling/cyanomethane_geom.xyz.dir/cyanomethane_2929.chk
%nproc=8
%mem=16000MB
#p B2PLYPD3/Def2QZVP 

cyanomethane

0 1
C  -6.573757  -1.115206   1.151802
C  -5.202912  -0.789026   0.968086
N  -4.108101  -0.539877   0.665451
H  -6.621154  -1.239466   2.165242
H  -6.922008  -1.993854   0.659848
H  -7.387388  -0.319682   0.820549
