%chk=/home/boittier/MDCM/nms_sampling/cyanomethane_geom.xyz.dir/cyanomethane_1135.chk
%nproc=8
%mem=16000MB
#p B2PLYPD3/Def2QZVP 

cyanomethane

0 1
C  -6.597886  -1.118917   1.167324
C  -5.197934  -0.793875   0.890348
N  -4.091110  -0.534721   0.711759
H  -6.812066  -1.211984   2.220729
H  -6.901072  -2.007664   0.704772
H  -7.223170  -0.329350   0.825452
