%chk=/home/boittier/MDCM/nms_sampling/cyanomethane_geom.xyz.dir/cyanomethane_3221.chk
%nproc=8
%mem=16000MB
#p B2PLYPD3/Def2QZVP 

cyanomethane

0 1
C  -6.605498  -1.127847   1.146106
C  -5.198218  -0.744689   0.915391
N  -4.079452  -0.565611   0.701840
H  -6.872889  -1.190925   2.249822
H  -6.765686  -2.081185   0.767233
H  -7.365813  -0.334300   0.812022
