%chk=/home/boittier/MDCM/nms_sampling/cyanomethane_geom.xyz.dir/cyanomethane_1612.chk
%nproc=8
%mem=16000MB
#p B2PLYPD3/Def2QZVP 

cyanomethane

0 1
C  -6.600197  -1.101013   1.167495
C  -5.196744  -0.835249   0.916576
N  -4.088121  -0.516697   0.696995
H  -6.769801  -1.188981   2.208337
H  -6.889059  -2.010624   0.674879
H  -7.308189  -0.317332   0.776145

