%chk=/home/boittier/MDCM/nms_sampling/cyanomethane_geom.xyz.dir/cyanomethane_777.chk
%nproc=8
%mem=16000MB
#p B2PLYPD3/Def2QZVP 

cyanomethane

0 1
C  -6.605129  -1.113259   1.157374
C  -5.200861  -0.788110   0.929221
N  -4.089313  -0.539955   0.691539
H  -6.750646  -1.216872   2.212370
H  -6.835266  -2.064494   0.692359
H  -7.253793  -0.321355   0.785808

