%chk=/home/boittier/MDCM/nms_sampling/cyanomethane_geom.xyz.dir/cyanomethane_141.chk
%nproc=8
%mem=16000MB
#p B2PLYPD3/Def2QZVP 

cyanomethane

0 1
C  -6.601458  -1.125938   1.165699
C  -5.199169  -0.763247   0.902581
N  -4.092219  -0.551284   0.703730
H  -6.748374  -1.233752   2.209455
H  -6.865580  -2.030224   0.693384
H  -7.248209  -0.330223   0.822513
