%chk=/home/boittier/MDCM/nms_sampling/cyanomethane_geom.xyz.dir/cyanomethane_2614.chk
%nproc=8
%mem=16000MB
#p B2PLYPD3/Def2QZVP 

cyanomethane

0 1
C  -6.588893  -1.124377   1.160801
C  -5.199877  -0.798809   0.885923
N  -4.098250  -0.533179   0.715920
H  -6.828528  -1.129623   2.268428
H  -6.864179  -2.061617   0.772114
H  -7.228476  -0.274527   0.791821

