%chk=/home/boittier/MDCM/nms_sampling/cyanomethane_geom.xyz.dir/cyanomethane_2473.chk
%nproc=8
%mem=16000MB
#p B2PLYPD3/Def2QZVP 

cyanomethane

0 1
C  -6.621545  -1.106087   1.154997
C  -5.197849  -0.809717   0.864823
N  -4.081553  -0.528962   0.729226
H  -6.846909  -1.237658   2.220060
H  -6.776696  -2.002485   0.802547
H  -7.160917  -0.363891   0.927635

