%chk=/home/boittier/MDCM/nms_sampling/cyanomethane_geom.xyz.dir/cyanomethane_1911.chk
%nproc=8
%mem=16000MB
#p B2PLYPD3/Def2QZVP 

cyanomethane

0 1
C  -6.584725  -1.123384   1.171145
C  -5.202300  -0.781940   0.880802
N  -4.101237  -0.540213   0.716627
H  -6.811125  -1.221758   2.210948
H  -6.892650  -2.015623   0.704831
H  -7.195946  -0.324542   0.832005

