%chk=/home/boittier/MDCM/nms_sampling/cyanomethane_geom.xyz.dir/cyanomethane_2381.chk
%nproc=8
%mem=16000MB
#p B2PLYPD3/Def2QZVP 

cyanomethane

0 1
C  -6.586020  -1.120797   1.167805
C  -5.207389  -0.817365   0.902625
N  -4.097265  -0.520822   0.704765
H  -6.774285  -1.157282   2.214597
H  -6.927772  -1.959415   0.698089
H  -7.178844  -0.323819   0.793156

