%chk=/home/boittier/MDCM/nms_sampling/cyanomethane_geom.xyz.dir/cyanomethane_1385.chk
%nproc=8
%mem=16000MB
#p B2PLYPD3/Def2QZVP 

cyanomethane

0 1
C  -6.596847  -1.129260   1.158589
C  -5.201068  -0.785911   0.942651
N  -4.088256  -0.538121   0.682243
H  -6.731981  -1.136837   2.253094
H  -6.945541  -2.015261   0.674230
H  -7.276411  -0.315986   0.722058
