%chk=/home/boittier/MDCM/nms_sampling/cyanomethane_geom.xyz.dir/cyanomethane_2755.chk
%nproc=8
%mem=16000MB
#p B2PLYPD3/Def2QZVP 

cyanomethane

0 1
C  -6.622955  -1.092594   1.161606
C  -5.196016  -0.862787   0.922866
N  -4.077734  -0.495343   0.698062
H  -6.830769  -1.287283   2.180666
H  -6.946161  -2.006764   0.619406
H  -7.067446  -0.264562   0.855471

