%chk=/home/boittier/MDCM/nms_sampling/cyanomethane_geom.xyz.dir/cyanomethane_2010.chk
%nproc=8
%mem=16000MB
#p B2PLYPD3/Def2QZVP 

cyanomethane

0 1
C  -6.595301  -1.119127   1.176629
C  -5.196669  -0.805244   0.873038
N  -4.090851  -0.529187   0.718536
H  -6.780745  -1.190800   2.250624
H  -6.942621  -2.009540   0.695817
H  -7.262919  -0.296662   0.811589

