%chk=/home/boittier/MDCM/nms_sampling/cyanomethane_geom.xyz.dir/cyanomethane_431.chk
%nproc=8
%mem=16000MB
#p B2PLYPD3/Def2QZVP 

cyanomethane

0 1
C  -6.597019  -1.118699   1.160337
C  -5.200205  -0.776206   0.914194
N  -4.090424  -0.546426   0.699552
H  -6.793297  -1.214025   2.253052
H  -6.846834  -2.055927   0.683802
H  -7.290324  -0.325652   0.783727
