%chk=/home/boittier/MDCM/nms_sampling/cyanomethane_geom.xyz.dir/cyanomethane_2169.chk
%nproc=8
%mem=16000MB
#p B2PLYPD3/Def2QZVP 

cyanomethane

0 1
C  -6.600529  -1.122910   1.174890
C  -5.200768  -0.777428   0.881085
N  -4.086995  -0.541076   0.717006
H  -6.840909  -1.254324   2.254376
H  -6.920443  -2.008032   0.635615
H  -7.167276  -0.338419   0.810059
