%chk=/home/boittier/MDCM/nms_sampling/cyanomethane_geom.xyz.dir/cyanomethane_1422.chk
%nproc=8
%mem=16000MB
#p B2PLYPD3/Def2QZVP 

cyanomethane

0 1
C  -6.592302  -1.117261   1.162786
C  -5.201735  -0.810663   0.918746
N  -4.098970  -0.524018   0.696990
H  -6.756981  -1.189536   2.275696
H  -6.927347  -2.032577   0.651741
H  -7.165795  -0.287048   0.763783

