%chk=/home/boittier/MDCM/nms_sampling/cyanomethane_geom.xyz.dir/cyanomethane_2572.chk
%nproc=8
%mem=16000MB
#p B2PLYPD3/Def2QZVP 

cyanomethane

0 1
C  -6.581859  -1.115226   1.173567
C  -5.209835  -0.773508   0.962103
N  -4.096515  -0.544340   0.667988
H  -6.636812  -1.300854   2.174752
H  -6.981450  -2.106273   0.532868
H  -7.291844  -0.252522   0.734064

