%chk=/home/boittier/MDCM/nms_sampling/cyanomethane_geom.xyz.dir/cyanomethane_2204.chk
%nproc=8
%mem=16000MB
#p B2PLYPD3/Def2QZVP 

cyanomethane

0 1
C  -6.605876  -1.122072   1.162144
C  -5.197711  -0.790838   0.871584
N  -4.089436  -0.535637   0.722763
H  -6.809606  -1.223162   2.261964
H  -6.877805  -2.017604   0.739174
H  -7.177286  -0.300642   0.879132

