%chk=/home/boittier/MDCM/nms_sampling/cyanomethane_geom.xyz.dir/cyanomethane_139.chk
%nproc=8
%mem=16000MB
#p B2PLYPD3/Def2QZVP 

cyanomethane

0 1
C  -6.596961  -1.104375   1.167386
C  -5.202722  -0.815057   0.909276
N  -4.096746  -0.525381   0.702140
H  -6.754613  -1.231095   2.241443
H  -6.850775  -2.069898   0.653991
H  -7.206821  -0.290432   0.781293

