%chk=/home/boittier/MDCM/nms_sampling/cyanomethane_geom.xyz.dir/cyanomethane_3563.chk
%nproc=8
%mem=16000MB
#p B2PLYPD3/Def2QZVP 

cyanomethane

0 1
C  -6.588264  -1.129801   1.182970
C  -5.203399  -0.736023   0.904159
N  -4.088858  -0.566585   0.695192
H  -6.653423  -1.255677   2.182664
H  -6.965846  -1.969034   0.631912
H  -7.399704  -0.429133   0.783696
