%chk=/home/boittier/MDCM/nms_sampling/cyanomethane_geom.xyz.dir/cyanomethane_1955.chk
%nproc=8
%mem=16000MB
#p B2PLYPD3/Def2QZVP 

cyanomethane

0 1
C  -6.589396  -1.114862   1.173442
C  -5.203275  -0.795580   0.875460
N  -4.102881  -0.539365   0.719797
H  -6.774380  -1.189705   2.235626
H  -6.747337  -2.042833   0.711228
H  -7.288559  -0.293793   0.802661
