%chk=/home/boittier/MDCM/nms_sampling/cyanomethane_geom.xyz.dir/cyanomethane_2582.chk
%nproc=8
%mem=16000MB
#p B2PLYPD3/Def2QZVP 

cyanomethane

0 1
C  -6.575034  -1.100240   1.152137
C  -5.203822  -0.857093   0.941348
N  -4.107559  -0.501774   0.690612
H  -6.872726  -1.209290   2.310507
H  -6.869545  -1.978301   0.582254
H  -7.175023  -0.268350   0.770946

