%chk=/home/boittier/MDCM/nms_sampling/cyanomethane_geom.xyz.dir/cyanomethane_3484.chk
%nproc=8
%mem=16000MB
#p B2PLYPD3/Def2QZVP 

cyanomethane

0 1
C  -6.617049  -1.094311   1.156654
C  -5.198528  -0.806496   0.937876
N  -4.082444  -0.530576   0.686369
H  -6.709746  -1.335714   2.216092
H  -6.859191  -2.118921   0.620518
H  -7.249612  -0.263648   0.841207

