%chk=/home/boittier/MDCM/nms_sampling/cyanomethane_geom.xyz.dir/cyanomethane_2162.chk
%nproc=8
%mem=16000MB
#p B2PLYPD3/Def2QZVP 

cyanomethane

0 1
C  -6.601229  -1.111581   1.177732
C  -5.195071  -0.817263   0.911639
N  -4.088703  -0.523067   0.698183
H  -6.751823  -1.186466   2.270355
H  -6.949148  -2.047340   0.605370
H  -7.266265  -0.280552   0.712510
