%chk=/home/boittier/MDCM/nms_sampling/cyanomethane_geom.xyz.dir/cyanomethane_1895.chk
%nproc=8
%mem=16000MB
#p B2PLYPD3/Def2QZVP 

cyanomethane

0 1
C  -6.596977  -1.116135   1.178748
C  -5.202875  -0.777672   0.902093
N  -4.100445  -0.545826   0.703675
H  -6.708652  -1.248772   2.224054
H  -6.804024  -2.101996   0.616673
H  -7.244432  -0.261001   0.757935

