%chk=/home/boittier/MDCM/nms_sampling/cyanomethane_geom.xyz.dir/cyanomethane_3594.chk
%nproc=8
%mem=16000MB
#p B2PLYPD3/Def2QZVP 

cyanomethane

0 1
C  -6.598398  -1.141188   1.175117
C  -5.201626  -0.780704   0.877647
N  -4.082939  -0.539073   0.720513
H  -6.912733  -1.085659   2.258735
H  -6.913642  -1.961256   0.713612
H  -7.176382  -0.352166   0.721982
