%chk=/home/boittier/MDCM/nms_sampling/cyanomethane_geom.xyz.dir/cyanomethane_1507.chk
%nproc=8
%mem=16000MB
#p B2PLYPD3/Def2QZVP 

cyanomethane

0 1
C  -6.601806  -1.117679   1.172098
C  -5.201750  -0.804620   0.888934
N  -4.087987  -0.528710   0.709678
H  -6.725178  -1.214830   2.260759
H  -6.934095  -1.986117   0.665547
H  -7.228628  -0.317091   0.817750

