%chk=/home/boittier/MDCM/nms_sampling/cyanomethane_geom.xyz.dir/cyanomethane_3020.chk
%nproc=8
%mem=16000MB
#p B2PLYPD3/Def2QZVP 

cyanomethane

0 1
C  -6.609730  -1.147172   1.149163
C  -5.198292  -0.751824   0.947824
N  -4.079271  -0.552828   0.677745
H  -6.698177  -1.190185   2.149570
H  -6.985244  -1.949864   0.725124
H  -7.269063  -0.304787   0.857833
