%chk=/home/boittier/MDCM/nms_sampling/cyanomethane_geom.xyz.dir/cyanomethane_2260.chk
%nproc=8
%mem=16000MB
#p B2PLYPD3/Def2QZVP 

cyanomethane

0 1
C  -6.585840  -1.117637   1.164277
C  -5.202180  -0.817572   0.914860
N  -4.100750  -0.518552   0.698483
H  -6.767115  -1.231253   2.238829
H  -6.978776  -1.994805   0.634840
H  -7.150098  -0.263402   0.823641
