%chk=/home/boittier/MDCM/nms_sampling/cyanomethane_geom.xyz.dir/cyanomethane_3586.chk
%nproc=8
%mem=16000MB
#p B2PLYPD3/Def2QZVP 

cyanomethane

0 1
C  -6.578642  -1.115859   1.188028
C  -5.204812  -0.841065   0.904951
N  -4.093829  -0.511136   0.697981
H  -6.705871  -1.123753   2.188719
H  -7.004696  -1.978219   0.638576
H  -7.338402  -0.253301   0.720382

