%chk=/home/boittier/MDCM/nms_sampling/cyanomethane_geom.xyz.dir/cyanomethane_471.chk
%nproc=8
%mem=16000MB
#p B2PLYPD3/Def2QZVP 

cyanomethane

0 1
C  -6.595680  -1.127412   1.165495
C  -5.203483  -0.769292   0.902744
N  -4.098005  -0.548521   0.704372
H  -6.740290  -1.204487   2.235766
H  -6.829142  -2.018853   0.687814
H  -7.230935  -0.324019   0.799438

