%chk=/home/boittier/MDCM/nms_sampling/cyanomethane_geom.xyz.dir/cyanomethane_3407.chk
%nproc=8
%mem=16000MB
#p B2PLYPD3/Def2QZVP 

cyanomethane

0 1
C  -6.603729  -1.147703   1.166233
C  -5.191059  -0.732707   0.901192
N  -4.087094  -0.565337   0.701156
H  -6.729674  -1.206851   2.253210
H  -6.950962  -1.924388   0.672751
H  -7.325501  -0.374797   0.828068

