%chk=/home/boittier/MDCM/nms_sampling/cyanomethane_geom.xyz.dir/cyanomethane_1986.chk
%nproc=8
%mem=16000MB
#p B2PLYPD3/Def2QZVP 

cyanomethane

0 1
C  -6.585903  -1.104418   1.176924
C  -5.204963  -0.809339   0.864181
N  -4.097545  -0.532041   0.725780
H  -6.818297  -1.223647   2.223881
H  -6.796508  -2.034820   0.708766
H  -7.291672  -0.327612   0.825820

