%chk=/home/boittier/MDCM/nms_sampling/cyanomethane_geom.xyz.dir/cyanomethane_517.chk
%nproc=8
%mem=16000MB
#p B2PLYPD3/Def2QZVP 

cyanomethane

0 1
C  -6.598591  -1.110422   1.159690
C  -5.198328  -0.812230   0.908899
N  -4.091182  -0.526472   0.703164
H  -6.806462  -1.220769   2.249054
H  -6.875325  -1.999187   0.677400
H  -7.242273  -0.320102   0.823536

