%chk=/home/boittier/MDCM/nms_sampling/cyanomethane_geom.xyz.dir/cyanomethane_244.chk
%nproc=8
%mem=16000MB
#p B2PLYPD3/Def2QZVP 

cyanomethane

0 1
C  -6.597179  -1.112740   1.156926
C  -5.199663  -0.778219   0.913153
N  -4.092418  -0.545322   0.699976
H  -6.783433  -1.247566   2.230762
H  -6.849461  -2.037649   0.701987
H  -7.273837  -0.368366   0.825922
