%chk=/home/boittier/MDCM/nms_sampling/cyanomethane_geom.xyz.dir/cyanomethane_3492.chk
%nproc=8
%mem=16000MB
#p B2PLYPD3/Def2QZVP 

cyanomethane

0 1
C  -6.601698  -1.123387   1.166839
C  -5.188919  -0.777648   0.953896
N  -4.085210  -0.542372   0.670548
H  -6.655597  -1.161225   2.140904
H  -7.066049  -2.044019   0.702166
H  -7.359746  -0.365112   0.718943
