%chk=/home/boittier/MDCM/nms_sampling/cyanomethane_geom.xyz.dir/cyanomethane_709.chk
%nproc=8
%mem=16000MB
#p B2PLYPD3/Def2QZVP 

cyanomethane

0 1
C  -6.591135  -1.109337   1.165670
C  -5.201236  -0.788299   0.923435
N  -4.096757  -0.538879   0.692790
H  -6.744346  -1.266735   2.227398
H  -6.894462  -2.040510   0.627205
H  -7.261950  -0.345310   0.788512

