%chk=/home/boittier/MDCM/nms_sampling/cyanomethane_geom.xyz.dir/cyanomethane_2879.chk
%nproc=8
%mem=16000MB
#p B2PLYPD3/Def2QZVP 

cyanomethane

0 1
C  -6.600489  -1.087862   1.159758
C  -5.198744  -0.839680   0.915515
N  -4.081011  -0.512667   0.699645
H  -6.834122  -1.284441   2.215326
H  -6.943324  -2.048587   0.667026
H  -7.259748  -0.329156   0.843141
