%chk=/home/boittier/MDCM/nms_sampling/cyanomethane_geom.xyz.dir/cyanomethane_1947.chk
%nproc=8
%mem=16000MB
#p B2PLYPD3/Def2QZVP 

cyanomethane

0 1
C  -6.597048  -1.116773   1.174350
C  -5.198749  -0.791158   0.929356
N  -4.086938  -0.535234   0.689139
H  -6.775710  -1.234797   2.196882
H  -6.961734  -2.055092   0.596220
H  -7.258354  -0.288956   0.738690

