%chk=/home/boittier/MDCM/nms_sampling/cyanomethane_geom.xyz.dir/cyanomethane_2821.chk
%nproc=8
%mem=16000MB
#p B2PLYPD3/Def2QZVP 

cyanomethane

0 1
C  -6.601941  -1.093252   1.169109
C  -5.198770  -0.825738   0.881944
N  -4.079292  -0.521984   0.719554
H  -6.922187  -1.281870   2.286925
H  -6.851029  -1.983260   0.621212
H  -7.273958  -0.379937   0.828572

