%chk=/home/boittier/MDCM/nms_sampling/cyanomethane_geom.xyz.dir/cyanomethane_1525.chk
%nproc=8
%mem=16000MB
#p B2PLYPD3/Def2QZVP 

cyanomethane

0 1
C  -6.612538  -1.100859   1.158798
C  -5.195538  -0.794442   0.940810
N  -4.089605  -0.535503   0.683756
H  -6.697208  -1.296162   2.196495
H  -6.886704  -2.093515   0.643691
H  -7.225825  -0.329207   0.804108
