%chk=/home/boittier/MDCM/nms_sampling/cyanomethane_geom.xyz.dir/cyanomethane_676.chk
%nproc=8
%mem=16000MB
#p B2PLYPD3/Def2QZVP 

cyanomethane

0 1
C  -6.593933  -1.115496   1.171378
C  -5.204309  -0.789773   0.883151
N  -4.095946  -0.536585   0.715744
H  -6.789891  -1.239723   2.246070
H  -6.876380  -2.054129   0.679170
H  -7.173047  -0.316380   0.812069

