%chk=/home/boittier/MDCM/nms_sampling/cyanomethane_geom.xyz.dir/cyanomethane_3143.chk
%nproc=8
%mem=16000MB
#p B2PLYPD3/Def2QZVP 

cyanomethane

0 1
C  -6.593010  -1.125161   1.174491
C  -5.204858  -0.748231   0.874121
N  -4.108535  -0.561763   0.712953
H  -6.558154  -1.240515   2.229491
H  -6.823564  -2.070739   0.740724
H  -7.283702  -0.339753   0.843894
