%chk=/home/boittier/MDCM/nms_sampling/cyanomethane_geom.xyz.dir/cyanomethane_627.chk
%nproc=8
%mem=16000MB
#p B2PLYPD3/Def2QZVP 

cyanomethane

0 1
C  -6.600213  -1.113484   1.165492
C  -5.197418  -0.806817   0.909035
N  -4.091182  -0.526821   0.701666
H  -6.783896  -1.224408   2.241932
H  -6.934025  -2.007236   0.657318
H  -7.197152  -0.327372   0.800547
