%chk=/home/boittier/MDCM/nms_sampling/cyanomethane_geom.xyz.dir/cyanomethane_267.chk
%nproc=8
%mem=16000MB
#p B2PLYPD3/Def2QZVP 

cyanomethane

0 1
C  -6.594802  -1.110676   1.172378
C  -5.201536  -0.812606   0.907853
N  -4.097491  -0.525252   0.701711
H  -6.746254  -1.211306   2.231471
H  -6.892774  -2.065461   0.646785
H  -7.202550  -0.271749   0.763477

