%chk=/home/boittier/MDCM/nms_sampling/cyanomethane_geom.xyz.dir/cyanomethane_1272.chk
%nproc=8
%mem=16000MB
#p B2PLYPD3/Def2QZVP 

cyanomethane

0 1
C  -6.615417  -1.109267   1.160705
C  -5.194629  -0.812579   0.892560
N  -4.087719  -0.526705   0.712693
H  -6.798276  -1.232492   2.250062
H  -6.818798  -2.011402   0.697189
H  -7.196083  -0.307206   0.851890

