%chk=/home/boittier/MDCM/nms_sampling/cyanomethane_geom.xyz.dir/cyanomethane_1927.chk
%nproc=8
%mem=16000MB
#p B2PLYPD3/Def2QZVP 

cyanomethane

0 1
C  -6.583193  -1.111468   1.159482
C  -5.206468  -0.825529   0.918973
N  -4.096866  -0.515804   0.697322
H  -6.789146  -1.219239   2.251010
H  -6.967164  -2.011808   0.657646
H  -7.174899  -0.278721   0.814666

