%chk=/home/boittier/MDCM/nms_sampling/cyanomethane_geom.xyz.dir/cyanomethane_2385.chk
%nproc=8
%mem=16000MB
#p B2PLYPD3/Def2QZVP 

cyanomethane

0 1
C  -6.610003  -1.109778   1.173388
C  -5.200676  -0.774662   0.884414
N  -4.088788  -0.547717   0.713842
H  -6.742263  -1.319451   2.249583
H  -6.802318  -2.063807   0.623737
H  -7.244928  -0.310392   0.845790

