%chk=/home/boittier/MDCM/nms_sampling/cyanomethane_geom.xyz.dir/cyanomethane_68.chk
%nproc=8
%mem=16000MB
#p B2PLYPD3/Def2QZVP 

cyanomethane

0 1
C  -6.595885  -1.111235   1.163632
C  -5.204559  -0.805862   0.912424
N  -4.095140  -0.529603   0.698414
H  -6.707258  -1.217396   2.222348
H  -6.883702  -2.039343   0.691201
H  -7.233583  -0.305937   0.809367

