%chk=/home/boittier/MDCM/nms_sampling/cyanomethane_geom.xyz.dir/cyanomethane_2248.chk
%nproc=8
%mem=16000MB
#p B2PLYPD3/Def2QZVP 

cyanomethane

0 1
C  -6.593807  -1.111213   1.165144
C  -5.203118  -0.773873   0.921570
N  -4.099616  -0.550246   0.693751
H  -6.714523  -1.245513   2.170783
H  -6.775788  -2.064285   0.683482
H  -7.314046  -0.343448   0.794303
