%chk=/home/boittier/MDCM/nms_sampling/cyanomethane_geom.xyz.dir/cyanomethane_999.chk
%nproc=8
%mem=16000MB
#p B2PLYPD3/Def2QZVP 

cyanomethane

0 1
C  -6.593004  -1.109910   1.162210
C  -5.201648  -0.781094   0.904560
N  -4.096181  -0.543225   0.704678
H  -6.787293  -1.269457   2.254955
H  -6.852667  -2.051846   0.666879
H  -7.240915  -0.358391   0.816955

