%chk=/home/boittier/MDCM/nms_sampling/cyanomethane_geom.xyz.dir/cyanomethane_2009.chk
%nproc=8
%mem=16000MB
#p B2PLYPD3/Def2QZVP 

cyanomethane

0 1
C  -6.585837  -1.128554   1.163422
C  -5.201156  -0.777242   0.942748
N  -4.100264  -0.542081   0.684180
H  -6.785023  -1.181490   2.228851
H  -6.904273  -2.016225   0.619811
H  -7.228561  -0.315956   0.718927
