%chk=/home/boittier/MDCM/nms_sampling/cyanomethane_geom.xyz.dir/cyanomethane_576.chk
%nproc=8
%mem=16000MB
#p B2PLYPD3/Def2QZVP 

cyanomethane

0 1
C  -6.595157  -1.117295   1.177827
C  -5.201813  -0.795070   0.888125
N  -4.096942  -0.535390   0.711209
H  -6.745636  -1.211668   2.239838
H  -6.863711  -2.040991   0.652979
H  -7.232269  -0.292253   0.777052
