%chk=/home/boittier/MDCM/nms_sampling/cyanomethane_geom.xyz.dir/cyanomethane_2317.chk
%nproc=8
%mem=16000MB
#p B2PLYPD3/Def2QZVP 

cyanomethane

0 1
C  -6.597049  -1.116808   1.159356
C  -5.200160  -0.771660   0.922537
N  -4.087127  -0.549380   0.697456
H  -6.865805  -1.236458   2.222113
H  -6.814848  -2.064349   0.662113
H  -7.296035  -0.323237   0.780819

