%chk=/home/boittier/MDCM/nms_sampling/cyanomethane_geom.xyz.dir/cyanomethane_2813.chk
%nproc=8
%mem=16000MB
#p B2PLYPD3/Def2QZVP 

cyanomethane

0 1
C  -6.590596  -1.126231   1.177047
C  -5.206890  -0.725206   0.890649
N  -4.094254  -0.569863   0.707142
H  -6.702824  -1.329481   2.302641
H  -6.918990  -2.104452   0.587062
H  -7.250355  -0.339198   0.791627

