%chk=/home/boittier/MDCM/nms_sampling/cyanomethane_geom.xyz.dir/cyanomethane_1551.chk
%nproc=8
%mem=16000MB
#p B2PLYPD3/Def2QZVP 

cyanomethane

0 1
C  -6.606245  -1.107820   1.165661
C  -5.196915  -0.823389   0.912356
N  -4.091429  -0.518807   0.702528
H  -6.814376  -1.221329   2.215695
H  -6.875637  -2.058829   0.656082
H  -7.153673  -0.259552   0.790256

