%chk=/home/boittier/MDCM/nms_sampling/cyanomethane_geom.xyz.dir/cyanomethane_1515.chk
%nproc=8
%mem=16000MB
#p B2PLYPD3/Def2QZVP 

cyanomethane

0 1
C  -6.596746  -1.110415   1.171018
C  -5.207973  -0.762768   0.911297
N  -4.098479  -0.554473   0.698977
H  -6.698795  -1.296047   2.218106
H  -6.778458  -2.078809   0.623685
H  -7.249852  -0.354036   0.787905

