%chk=/home/boittier/MDCM/nms_sampling/cyanomethane_geom.xyz.dir/cyanomethane_1128.chk
%nproc=8
%mem=16000MB
#p B2PLYPD3/Def2QZVP 

cyanomethane

0 1
C  -6.598176  -1.123331   1.167098
C  -5.201522  -0.775289   0.900935
N  -4.096080  -0.545310   0.705716
H  -6.757518  -1.195703   2.220793
H  -6.843848  -2.061331   0.707355
H  -7.218490  -0.314667   0.782531
