%chk=/home/boittier/MDCM/nms_sampling/cyanomethane_geom.xyz.dir/cyanomethane_1141.chk
%nproc=8
%mem=16000MB
#p B2PLYPD3/Def2QZVP 

cyanomethane

0 1
C  -6.596033  -1.113074   1.165309
C  -5.203265  -0.793107   0.921567
N  -4.096823  -0.537435   0.692689
H  -6.684184  -1.226427   2.202176
H  -6.857480  -2.046635   0.672840
H  -7.273207  -0.306973   0.795308
