%chk=/home/boittier/MDCM/nms_sampling/cyanomethane_geom.xyz.dir/cyanomethane_3271.chk
%nproc=8
%mem=16000MB
#p B2PLYPD3/Def2QZVP 

cyanomethane

0 1
C  -6.605442  -1.112184   1.204348
C  -5.196323  -0.787740   0.836550
N  -4.078902  -0.537265   0.736222
H  -6.827291  -1.301308   2.211284
H  -6.977732  -2.062792   0.599752
H  -7.227944  -0.300211   0.806052

