%chk=/home/boittier/MDCM/nms_sampling/cyanomethane_geom.xyz.dir/cyanomethane_2496.chk
%nproc=8
%mem=16000MB
#p B2PLYPD3/Def2QZVP 

cyanomethane

0 1
C  -6.598834  -1.115662   1.139205
C  -5.198769  -0.739036   0.934681
N  -4.081941  -0.567718   0.691146
H  -6.869467  -1.292230   2.219544
H  -6.812242  -2.049004   0.730810
H  -7.362180  -0.424763   0.865529
