%chk=/home/boittier/MDCM/nms_sampling/cyanomethane_geom.xyz.dir/cyanomethane_524.chk
%nproc=8
%mem=16000MB
#p B2PLYPD3/Def2QZVP 

cyanomethane

0 1
C  -6.603470  -1.121373   1.170690
C  -5.198000  -0.767224   0.900928
N  -4.091469  -0.550082   0.703811
H  -6.733892  -1.235121   2.205304
H  -6.864933  -2.054912   0.683065
H  -7.263711  -0.328649   0.799424

