%chk=/home/boittier/MDCM/nms_sampling/cyanomethane_geom.xyz.dir/cyanomethane_165.chk
%nproc=8
%mem=16000MB
#p B2PLYPD3/Def2QZVP 

cyanomethane

0 1
C  -6.588803  -1.119666   1.162686
C  -5.202626  -0.803815   0.909420
N  -4.098895  -0.529449   0.702042
H  -6.779860  -1.182007   2.245669
H  -6.887841  -2.003707   0.686121
H  -7.214381  -0.307211   0.791952
