%chk=/home/boittier/MDCM/nms_sampling/cyanomethane_geom.xyz.dir/cyanomethane_2797.chk
%nproc=8
%mem=16000MB
#p B2PLYPD3/Def2QZVP 

cyanomethane

0 1
C  -6.573783  -1.136815   1.168400
C  -5.203993  -0.724171   0.892986
N  -4.107844  -0.573050   0.711352
H  -6.835111  -1.217684   2.271870
H  -6.803393  -2.132435   0.679534
H  -7.280604  -0.286036   0.755156
