%chk=/home/boittier/MDCM/nms_sampling/cyanomethane_geom.xyz.dir/cyanomethane_264.chk
%nproc=8
%mem=16000MB
#p B2PLYPD3/Def2QZVP 

cyanomethane

0 1
C  -6.603932  -1.108203   1.159651
C  -5.202109  -0.808976   0.914968
N  -4.091444  -0.528156   0.700249
H  -6.770978  -1.221994   2.250543
H  -6.841026  -2.049598   0.675420
H  -7.198126  -0.308638   0.796316

