%chk=/home/boittier/MDCM/nms_sampling/cyanomethane_geom.xyz.dir/cyanomethane_1228.chk
%nproc=8
%mem=16000MB
#p B2PLYPD3/Def2QZVP 

cyanomethane

0 1
C  -6.613081  -1.098153   1.178239
C  -5.194985  -0.807736   0.862642
N  -4.088904  -0.532387   0.726862
H  -6.793570  -1.249147   2.281229
H  -6.789286  -2.080915   0.675174
H  -7.238368  -0.341909   0.795050

