%chk=/home/boittier/MDCM/nms_sampling/cyanomethane_geom.xyz.dir/cyanomethane_137.chk
%nproc=8
%mem=16000MB
#p B2PLYPD3/Def2QZVP 

cyanomethane

0 1
C  -6.607192  -1.117657   1.174957
C  -5.200462  -0.786951   0.890791
N  -4.088126  -0.539720   0.709780
H  -6.742867  -1.201108   2.233747
H  -6.862832  -2.051802   0.682605
H  -7.230352  -0.326738   0.768960
