%chk=/home/boittier/MDCM/nms_sampling/cyanomethane_geom.xyz.dir/cyanomethane_2781.chk
%nproc=8
%mem=16000MB
#p B2PLYPD3/Def2QZVP 

cyanomethane

0 1
C  -6.614684  -1.124773   1.183057
C  -5.200718  -0.768967   0.945192
N  -4.083346  -0.547314   0.678307
H  -6.657076  -1.246127   2.161533
H  -6.896642  -2.128502   0.542004
H  -7.253951  -0.197496   0.692327

