%chk=/home/boittier/MDCM/nms_sampling/cyanomethane_geom.xyz.dir/cyanomethane_539.chk
%nproc=8
%mem=16000MB
#p B2PLYPD3/Def2QZVP 

cyanomethane

0 1
C  -6.595769  -1.115440   1.164378
C  -5.198338  -0.778298   0.904929
N  -4.092591  -0.545149   0.702888
H  -6.767558  -1.242787   2.242943
H  -6.874198  -2.053806   0.679829
H  -7.294993  -0.328828   0.809847

