%chk=/home/boittier/MDCM/nms_sampling/cyanomethane_geom.xyz.dir/cyanomethane_3366.chk
%nproc=8
%mem=16000MB
#p B2PLYPD3/Def2QZVP 

cyanomethane

0 1
C  -6.605116  -1.105819   1.151057
C  -5.205999  -0.809412   0.964513
N  -4.090858  -0.530966   0.670636
H  -6.631760  -1.164224   2.238650
H  -6.823092  -2.042926   0.681606
H  -7.305354  -0.354573   0.721664

