%chk=/home/boittier/MDCM/nms_sampling/cyanomethane_geom.xyz.dir/cyanomethane_2770.chk
%nproc=8
%mem=16000MB
#p B2PLYPD3/Def2QZVP 

cyanomethane

0 1
C  -6.603397  -1.136722   1.165244
C  -5.196619  -0.782731   0.839164
N  -4.092975  -0.537839   0.739304
H  -6.813745  -1.166811   2.272913
H  -6.906137  -2.007860   0.815643
H  -7.136035  -0.277757   0.903681
