%chk=/home/boittier/MDCM/nms_sampling/cyanomethane_geom.xyz.dir/cyanomethane_466.chk
%nproc=8
%mem=16000MB
#p B2PLYPD3/Def2QZVP 

cyanomethane

0 1
C  -6.596627  -1.117526   1.171206
C  -5.201791  -0.767454   0.901245
N  -4.097206  -0.549857   0.703518
H  -6.710239  -1.263593   2.236648
H  -6.862103  -2.088888   0.654276
H  -7.246845  -0.307964   0.795891
