%chk=/home/boittier/MDCM/nms_sampling/cyanomethane_geom.xyz.dir/cyanomethane_241.chk
%nproc=8
%mem=16000MB
#p B2PLYPD3/Def2QZVP 

cyanomethane

0 1
C  -6.600151  -1.118180   1.163443
C  -5.200219  -0.794773   0.913154
N  -4.089473  -0.534599   0.699982
H  -6.787321  -1.188783   2.233893
H  -6.889681  -2.043439   0.690059
H  -7.228451  -0.313562   0.773152

