%chk=/home/boittier/MDCM/nms_sampling/cyanomethane_geom.xyz.dir/cyanomethane_2490.chk
%nproc=8
%mem=16000MB
#p B2PLYPD3/Def2QZVP 

cyanomethane

0 1
C  -6.627345  -1.098877   1.161401
C  -5.195833  -0.810530   0.953947
N  -4.078788  -0.533934   0.675894
H  -6.644014  -1.209203   2.218665
H  -6.756932  -2.065494   0.631416
H  -7.382012  -0.313082   0.727530

