%chk=/home/boittier/MDCM/nms_sampling/cyanomethane_geom.xyz.dir/cyanomethane_1667.chk
%nproc=8
%mem=16000MB
#p B2PLYPD3/Def2QZVP 

cyanomethane

0 1
C  -6.603294  -1.119532   1.159862
C  -5.200658  -0.794432   0.936758
N  -4.095024  -0.532673   0.687952
H  -6.741277  -1.209681   2.221322
H  -6.885761  -2.076918   0.651273
H  -7.156828  -0.260009   0.762060
