%chk=/home/boittier/MDCM/nms_sampling/cyanomethane_geom.xyz.dir/cyanomethane_196.chk
%nproc=8
%mem=16000MB
#p B2PLYPD3/Def2QZVP 

cyanomethane

0 1
C  -6.604401  -1.115457   1.161029
C  -5.200659  -0.775291   0.906992
N  -4.088440  -0.546709   0.703603
H  -6.788639  -1.253002   2.211019
H  -6.821509  -2.040736   0.692904
H  -7.252227  -0.342895   0.830807

