%chk=/home/boittier/MDCM/nms_sampling/cyanomethane_geom.xyz.dir/cyanomethane_1698.chk
%nproc=8
%mem=16000MB
#p B2PLYPD3/Def2QZVP 

cyanomethane

0 1
C  -6.608671  -1.134168   1.158401
C  -5.197530  -0.753649   0.907779
N  -4.090607  -0.556768   0.702631
H  -6.757176  -1.169793   2.266172
H  -6.819755  -2.040951   0.723216
H  -7.242434  -0.334814   0.778080

