%chk=/home/boittier/MDCM/nms_sampling/cyanomethane_geom.xyz.dir/cyanomethane_1770.chk
%nproc=8
%mem=16000MB
#p B2PLYPD3/Def2QZVP 

cyanomethane

0 1
C  -6.592020  -1.100374   1.176733
C  -5.207777  -0.804754   0.867457
N  -4.099327  -0.532055   0.724302
H  -6.781138  -1.301506   2.217236
H  -6.797551  -2.067264   0.665656
H  -7.193589  -0.303578   0.860666
