%chk=/home/boittier/MDCM/nms_sampling/cyanomethane_geom.xyz.dir/cyanomethane_1491.chk
%nproc=8
%mem=16000MB
#p B2PLYPD3/Def2QZVP 

cyanomethane

0 1
C  -6.591944  -1.130987   1.167194
C  -5.199671  -0.750372   0.899519
N  -4.097614  -0.557683   0.707916
H  -6.824453  -1.224479   2.248176
H  -6.841107  -2.074721   0.667646
H  -7.230382  -0.301049   0.779266
