%chk=/home/boittier/MDCM/nms_sampling/cyanomethane_geom.xyz.dir/cyanomethane_148.chk
%nproc=8
%mem=16000MB
#p B2PLYPD3/Def2QZVP 

cyanomethane

0 1
C  -6.599758  -1.118170   1.173901
C  -5.198332  -0.780369   0.906432
N  -4.090964  -0.543542   0.701630
H  -6.760268  -1.224866   2.252308
H  -6.873424  -2.057208   0.625937
H  -7.279049  -0.307236   0.751758

