%chk=/home/boittier/MDCM/nms_sampling/cyanomethane_geom.xyz.dir/cyanomethane_3569.chk
%nproc=8
%mem=16000MB
#p B2PLYPD3/Def2QZVP 

cyanomethane

0 1
C  -6.625979  -1.110911   1.181086
C  -5.190414  -0.785469   0.877791
N  -4.083323  -0.538386   0.715843
H  -6.727488  -1.269116   2.195309
H  -6.908328  -2.118917   0.681073
H  -7.158258  -0.300217   0.805097

