%chk=/home/boittier/MDCM/nms_sampling/cyanomethane_geom.xyz.dir/cyanomethane_944.chk
%nproc=8
%mem=16000MB
#p B2PLYPD3/Def2QZVP 

cyanomethane

0 1
C  -6.590168  -1.120744   1.168231
C  -5.202812  -0.773511   0.907348
N  -4.096928  -0.545733   0.702369
H  -6.781824  -1.219196   2.249597
H  -6.878281  -2.053514   0.657985
H  -7.230631  -0.337505   0.762605

