%chk=/home/boittier/MDCM/nms_sampling/cyanomethane_geom.xyz.dir/cyanomethane_1747.chk
%nproc=8
%mem=16000MB
#p B2PLYPD3/Def2QZVP 

cyanomethane

0 1
C  -6.596779  -1.106006   1.176555
C  -5.202257  -0.797996   0.877224
N  -4.100008  -0.536678   0.720080
H  -6.794731  -1.265281   2.270495
H  -6.756125  -2.065405   0.626792
H  -7.223923  -0.293706   0.799523

