%chk=/home/boittier/MDCM/nms_sampling/cyanomethane_geom.xyz.dir/cyanomethane_2604.chk
%nproc=8
%mem=16000MB
#p B2PLYPD3/Def2QZVP 

cyanomethane

0 1
C  -6.579386  -1.108621   1.170209
C  -5.200948  -0.794360   0.869709
N  -4.097160  -0.543390   0.723192
H  -6.845463  -1.164704   2.285169
H  -6.772029  -2.092588   0.749315
H  -7.422419  -0.314912   0.774133

