%chk=/home/boittier/MDCM/nms_sampling/cyanomethane_geom.xyz.dir/cyanomethane_1572.chk
%nproc=8
%mem=16000MB
#p B2PLYPD3/Def2QZVP 

cyanomethane

0 1
C  -6.604608  -1.112329   1.169205
C  -5.200802  -0.781292   0.939388
N  -4.089415  -0.540856   0.681574
H  -6.657573  -1.295486   2.185484
H  -6.936112  -2.073044   0.594336
H  -7.250234  -0.292314   0.787702

