%chk=/home/boittier/MDCM/nms_sampling/cyanomethane_geom.xyz.dir/cyanomethane_3357.chk
%nproc=8
%mem=16000MB
#p B2PLYPD3/Def2QZVP 

cyanomethane

0 1
C  -6.624028  -1.100949   1.200041
C  -5.190251  -0.833865   0.875571
N  -4.086509  -0.514773   0.717936
H  -6.758746  -1.227839   2.208245
H  -6.866333  -2.066426   0.567625
H  -7.154514  -0.264573   0.712102
