%chk=/home/boittier/MDCM/nms_sampling/cyanomethane_geom.xyz.dir/cyanomethane_3274.chk
%nproc=8
%mem=16000MB
#p B2PLYPD3/Def2QZVP 

cyanomethane

0 1
C  -6.563923  -1.126402   1.185633
C  -5.213049  -0.779044   0.961431
N  -4.104679  -0.542338   0.667057
H  -6.641966  -1.187269   2.191455
H  -6.985481  -2.074480   0.515744
H  -7.348891  -0.242288   0.623838
