%chk=/home/boittier/MDCM/nms_sampling/cyanomethane_geom.xyz.dir/cyanomethane_3173.chk
%nproc=8
%mem=16000MB
#p B2PLYPD3/Def2QZVP 

cyanomethane

0 1
C  -6.599446  -1.154055   1.151776
C  -5.210441  -0.720493   0.908160
N  -4.099972  -0.570429   0.700746
H  -6.670086  -1.220017   2.204628
H  -6.806358  -1.954842   0.740172
H  -7.164167  -0.326916   0.897643
