%chk=/home/boittier/MDCM/nms_sampling/cyanomethane_geom.xyz.dir/cyanomethane_1116.chk
%nproc=8
%mem=16000MB
#p B2PLYPD3/Def2QZVP 

cyanomethane

0 1
C  -6.600983  -1.111952   1.164839
C  -5.197709  -0.793866   0.890010
N  -4.090961  -0.537226   0.712862
H  -6.814961  -1.232467   2.249238
H  -6.838281  -2.015294   0.693164
H  -7.251981  -0.349528   0.827046
