%chk=/home/boittier/MDCM/nms_sampling/cyanomethane_geom.xyz.dir/cyanomethane_3331.chk
%nproc=8
%mem=16000MB
#p B2PLYPD3/Def2QZVP 

cyanomethane

0 1
C  -6.602515  -1.110382   1.138779
C  -5.209157  -0.768024   0.927446
N  -4.097776  -0.550564   0.694594
H  -6.727951  -1.264270   2.230078
H  -6.750555  -2.022825   0.760334
H  -7.175093  -0.439110   0.873514
