%chk=/home/boittier/MDCM/nms_sampling/cyanomethane_geom.xyz.dir/cyanomethane_2023.chk
%nproc=8
%mem=16000MB
#p B2PLYPD3/Def2QZVP 

cyanomethane

0 1
C  -6.603036  -1.107323   1.168207
C  -5.199174  -0.812344   0.912121
N  -4.085299  -0.526210   0.698394
H  -6.748430  -1.255351   2.246585
H  -6.921895  -1.994131   0.618950
H  -7.272553  -0.321065   0.811546
