%chk=/home/boittier/MDCM/nms_sampling/cyanomethane_geom.xyz.dir/cyanomethane_296.chk
%nproc=8
%mem=16000MB
#p B2PLYPD3/Def2QZVP 

cyanomethane

0 1
C  -6.587563  -1.112975   1.157428
C  -5.202718  -0.791200   0.933942
N  -4.098934  -0.537300   0.689946
H  -6.787228  -1.239465   2.242357
H  -6.861218  -2.051140   0.639464
H  -7.247328  -0.307629   0.781619
