%chk=/home/boittier/MDCM/nms_sampling/cyanomethane_geom.xyz.dir/cyanomethane_2965.chk
%nproc=8
%mem=16000MB
#p B2PLYPD3/Def2QZVP 

cyanomethane

0 1
C  -6.610677  -1.129857   1.152051
C  -5.201906  -0.747911   0.903460
N  -4.083231  -0.564415   0.710758
H  -6.894005  -1.204844   2.250865
H  -6.654005  -2.080784   0.722945
H  -7.296630  -0.274055   0.815434

