%chk=/home/boittier/MDCM/nms_sampling/cyanomethane_geom.xyz.dir/cyanomethane_2912.chk
%nproc=8
%mem=16000MB
#p B2PLYPD3/Def2QZVP 

cyanomethane

0 1
C  -6.597083  -1.136436   1.185187
C  -5.209914  -0.757689   0.874650
N  -4.096513  -0.557477   0.715336
H  -6.660348  -1.149290   2.182216
H  -6.768558  -2.046530   0.719747
H  -7.295396  -0.277332   0.765021

