%chk=/home/boittier/MDCM/nms_sampling/cyanomethane_geom.xyz.dir/cyanomethane_2093.chk
%nproc=8
%mem=16000MB
#p B2PLYPD3/Def2QZVP 

cyanomethane

0 1
C  -6.598378  -1.105290   1.176304
C  -5.201331  -0.801676   0.857358
N  -4.089444  -0.534092   0.726885
H  -6.764821  -1.236133   2.269052
H  -6.875120  -2.020268   0.715845
H  -7.273794  -0.382492   0.835799

