%chk=/home/boittier/MDCM/nms_sampling/cyanomethane_geom.xyz.dir/cyanomethane_2393.chk
%nproc=8
%mem=16000MB
#p B2PLYPD3/Def2QZVP 

cyanomethane

0 1
C  -6.591343  -1.123831   1.179721
C  -5.207431  -0.753410   0.888543
N  -4.099673  -0.557656   0.708885
H  -6.690376  -1.261027   2.226742
H  -6.833890  -2.059021   0.639341
H  -7.256468  -0.327240   0.789507
