%chk=/home/boittier/MDCM/nms_sampling/cyanomethane_geom.xyz.dir/cyanomethane_2941.chk
%nproc=8
%mem=16000MB
#p B2PLYPD3/Def2QZVP 

cyanomethane

0 1
C  -6.598132  -1.101592   1.143037
C  -5.189327  -0.850179   0.930600
N  -4.085426  -0.503670   0.694434
H  -6.887162  -1.217100   2.291018
H  -7.008326  -2.019831   0.691169
H  -7.222842  -0.266484   0.846714

