%chk=/home/boittier/MDCM/nms_sampling/cyanomethane_geom.xyz.dir/cyanomethane_721.chk
%nproc=8
%mem=16000MB
#p B2PLYPD3/Def2QZVP 

cyanomethane

0 1
C  -6.604723  -1.113569   1.162408
C  -5.200529  -0.796840   0.905355
N  -4.090616  -0.534120   0.703892
H  -6.757061  -1.235409   2.245758
H  -6.857593  -2.022049   0.675762
H  -7.215972  -0.321113   0.822462

