%chk=/home/boittier/MDCM/nms_sampling/cyanomethane_geom.xyz.dir/cyanomethane_1616.chk
%nproc=8
%mem=16000MB
#p B2PLYPD3/Def2QZVP 

cyanomethane

0 1
C  -6.590912  -1.124638   1.156801
C  -5.200689  -0.746986   0.912455
N  -4.098571  -0.558804   0.700317
H  -6.780441  -1.290166   2.283546
H  -6.873005  -2.055620   0.647441
H  -7.230138  -0.341555   0.830271

