%chk=/home/boittier/MDCM/nms_sampling/cyanomethane_geom.xyz.dir/cyanomethane_1170.chk
%nproc=8
%mem=16000MB
#p B2PLYPD3/Def2QZVP 

cyanomethane

0 1
C  -6.597713  -1.112697   1.165384
C  -5.200430  -0.788438   0.923016
N  -4.089169  -0.540078   0.694313
H  -6.782758  -1.233294   2.226190
H  -6.860702  -2.062284   0.641636
H  -7.293460  -0.305727   0.768771
