%chk=/home/boittier/MDCM/nms_sampling/cyanomethane_geom.xyz.dir/cyanomethane_972.chk
%nproc=8
%mem=16000MB
#p B2PLYPD3/Def2QZVP 

cyanomethane

0 1
C  -6.598879  -1.115029   1.162551
C  -5.200713  -0.791446   0.892969
N  -4.089032  -0.536758   0.711901
H  -6.829605  -1.256109   2.250612
H  -6.865092  -2.026648   0.677233
H  -7.225358  -0.306771   0.850049
