%chk=/home/boittier/MDCM/nms_sampling/cyanomethane_geom.xyz.dir/cyanomethane_1419.chk
%nproc=8
%mem=16000MB
#p B2PLYPD3/Def2QZVP 

cyanomethane

0 1
C  -6.585266  -1.107078   1.169670
C  -5.203943  -0.782802   0.935457
N  -4.096788  -0.541658   0.684238
H  -6.704958  -1.299516   2.191985
H  -6.934365  -2.071406   0.596883
H  -7.297779  -0.325417   0.781573
