%chk=/home/boittier/MDCM/nms_sampling/cyanomethane_geom.xyz.dir/cyanomethane_3211.chk
%nproc=8
%mem=16000MB
#p B2PLYPD3/Def2QZVP 

cyanomethane

0 1
C  -6.597547  -1.144288   1.166595
C  -5.196129  -0.736687   0.875224
N  -4.082362  -0.562892   0.716699
H  -6.816668  -1.210981   2.201172
H  -6.967517  -1.958887   0.756536
H  -7.297806  -0.372802   0.879151

