%chk=/home/boittier/MDCM/nms_sampling/cyanomethane_geom.xyz.dir/cyanomethane_1781.chk
%nproc=8
%mem=16000MB
#p B2PLYPD3/Def2QZVP 

cyanomethane

0 1
C  -6.592859  -1.101085   1.160147
C  -5.202855  -0.814954   0.912326
N  -4.091814  -0.524818   0.700508
H  -6.788119  -1.262184   2.222606
H  -6.907717  -2.036309   0.679280
H  -7.232649  -0.336000   0.835754
