%chk=/home/boittier/MDCM/nms_sampling/cyanomethane_geom.xyz.dir/cyanomethane_1226.chk
%nproc=8
%mem=16000MB
#p B2PLYPD3/Def2QZVP 

cyanomethane

0 1
C  -6.615195  -1.113327   1.164806
C  -5.199306  -0.786616   0.930848
N  -4.084432  -0.543218   0.687645
H  -6.672204  -1.218308   2.211950
H  -6.802771  -2.029791   0.651622
H  -7.331795  -0.326164   0.771353

