%chk=/home/boittier/MDCM/nms_sampling/cyanomethane_geom.xyz.dir/cyanomethane_3422.chk
%nproc=8
%mem=16000MB
#p B2PLYPD3/Def2QZVP 

cyanomethane

0 1
C  -6.624075  -1.119336   1.151231
C  -5.199114  -0.772631   0.956194
N  -4.080357  -0.540707   0.676013
H  -6.691250  -1.262784   2.217806
H  -6.966054  -2.046919   0.647574
H  -7.100457  -0.370938   0.785313
