%chk=/home/boittier/MDCM/nms_sampling/cyanomethane_geom.xyz.dir/cyanomethane_2810.chk
%nproc=8
%mem=16000MB
#p B2PLYPD3/Def2QZVP 

cyanomethane

0 1
C  -6.575988  -1.102119   1.141598
C  -5.203043  -0.843683   0.952476
N  -4.102532  -0.511766   0.684481
H  -6.880470  -1.113896   2.238654
H  -6.846197  -2.000729   0.738557
H  -7.257903  -0.359540   0.742826

