%chk=/home/boittier/MDCM/nms_sampling/cyanomethane_geom.xyz.dir/cyanomethane_467.chk
%nproc=8
%mem=16000MB
#p B2PLYPD3/Def2QZVP 

cyanomethane

0 1
C  -6.598605  -1.110800   1.170529
C  -5.199683  -0.780844   0.899092
N  -4.092655  -0.544282   0.705931
H  -6.763927  -1.262996   2.239003
H  -6.847931  -2.043257   0.648928
H  -7.274547  -0.353235   0.800095

