%chk=/home/boittier/MDCM/nms_sampling/cyanomethane_geom.xyz.dir/cyanomethane_1471.chk
%nproc=8
%mem=16000MB
#p B2PLYPD3/Def2QZVP 

cyanomethane

0 1
C  -6.602389  -1.123376   1.157789
C  -5.195714  -0.757553   0.904709
N  -4.090615  -0.557071   0.706087
H  -6.834776  -1.194689   2.236683
H  -6.795183  -2.074480   0.740025
H  -7.286345  -0.354066   0.786394

