%chk=/home/boittier/MDCM/nms_sampling/cyanomethane_geom.xyz.dir/cyanomethane_704.chk
%nproc=8
%mem=16000MB
#p B2PLYPD3/Def2QZVP 

cyanomethane

0 1
C  -6.598629  -1.112216   1.173990
C  -5.198710  -0.781427   0.903742
N  -4.092760  -0.543783   0.703535
H  -6.770827  -1.249570   2.235953
H  -6.851430  -2.059135   0.628944
H  -7.274341  -0.333181   0.766452

