%chk=/home/boittier/MDCM/nms_sampling/cyanomethane_geom.xyz.dir/cyanomethane_2837.chk
%nproc=8
%mem=16000MB
#p B2PLYPD3/Def2QZVP 

cyanomethane

0 1
C  -6.621085  -1.101036   1.174386
C  -5.197457  -0.756807   0.870158
N  -4.078721  -0.561000   0.720254
H  -6.734970  -1.406096   2.269141
H  -6.751177  -2.076012   0.603196
H  -7.349100  -0.340437   0.902135

