%chk=/home/boittier/MDCM/nms_sampling/cyanomethane_geom.xyz.dir/cyanomethane_246.chk
%nproc=8
%mem=16000MB
#p B2PLYPD3/Def2QZVP 

cyanomethane

0 1
C  -6.600092  -1.117275   1.161070
C  -5.200362  -0.790468   0.925725
N  -4.090341  -0.537858   0.693078
H  -6.772145  -1.198324   2.220228
H  -6.864787  -2.016455   0.674619
H  -7.256524  -0.342430   0.772558

