%chk=/home/boittier/MDCM/nms_sampling/cyanomethane_geom.xyz.dir/cyanomethane_2231.chk
%nproc=8
%mem=16000MB
#p B2PLYPD3/Def2QZVP 

cyanomethane

0 1
C  -6.606716  -1.116278   1.164663
C  -5.198352  -0.790537   0.882517
N  -4.091716  -0.538101   0.719738
H  -6.850586  -1.215126   2.306405
H  -6.789124  -2.078435   0.680649
H  -7.178043  -0.284712   0.792909

