%chk=/home/boittier/MDCM/nms_sampling/cyanomethane_geom.xyz.dir/cyanomethane_2030.chk
%nproc=8
%mem=16000MB
#p B2PLYPD3/Def2QZVP 

cyanomethane

0 1
C  -6.611741  -1.111674   1.171966
C  -5.195867  -0.812864   0.882965
N  -4.087873  -0.528056   0.716263
H  -6.786208  -1.192352   2.270252
H  -6.810710  -2.020016   0.675164
H  -7.244731  -0.297222   0.790852
