%chk=/home/boittier/MDCM/nms_sampling/cyanomethane_geom.xyz.dir/cyanomethane_485.chk
%nproc=8
%mem=16000MB
#p B2PLYPD3/Def2QZVP 

cyanomethane

0 1
C  -6.596398  -1.109615   1.158714
C  -5.201885  -0.794766   0.930416
N  -4.097604  -0.535734   0.692018
H  -6.770087  -1.229561   2.234227
H  -6.834789  -2.068376   0.658249
H  -7.212973  -0.322989   0.768986

