%chk=/home/boittier/MDCM/nms_sampling/cyanomethane_geom.xyz.dir/cyanomethane_235.chk
%nproc=8
%mem=16000MB
#p B2PLYPD3/Def2QZVP 

cyanomethane

0 1
C  -6.591823  -1.118412   1.163264
C  -5.204115  -0.768562   0.906722
N  -4.095815  -0.549501   0.703349
H  -6.782116  -1.269206   2.248833
H  -6.836326  -2.045015   0.649684
H  -7.251470  -0.324556   0.820003
