%chk=/home/boittier/MDCM/nms_sampling/cyanomethane_geom.xyz.dir/cyanomethane_3147.chk
%nproc=8
%mem=16000MB
#p B2PLYPD3/Def2QZVP 

cyanomethane

0 1
C  -6.579386  -1.113535   1.149841
C  -5.200091  -0.839591   0.946492
N  -4.104056  -0.510904   0.685107
H  -6.839424  -1.119580   2.200637
H  -6.896626  -1.901913   0.704475
H  -7.221654  -0.371538   0.771987

