%chk=/home/boittier/MDCM/nms_sampling/cyanomethane_geom.xyz.dir/cyanomethane_1074.chk
%nproc=8
%mem=16000MB
#p B2PLYPD3/Def2QZVP 

cyanomethane

0 1
C  -6.602093  -1.109713   1.161349
C  -5.198886  -0.814766   0.916829
N  -4.091204  -0.524094   0.699704
H  -6.806090  -1.200550   2.234060
H  -6.877700  -2.054798   0.680274
H  -7.190303  -0.295433   0.778065

