%chk=/home/boittier/MDCM/nms_sampling/cyanomethane_geom.xyz.dir/cyanomethane_1005.chk
%nproc=8
%mem=16000MB
#p B2PLYPD3/Def2QZVP 

cyanomethane

0 1
C  -6.607903  -1.119526   1.171710
C  -5.197807  -0.778931   0.897863
N  -4.090478  -0.544233   0.705863
H  -6.730433  -1.199361   2.228510
H  -6.852344  -2.050164   0.691428
H  -7.243933  -0.339742   0.769454
