%chk=/home/boittier/MDCM/nms_sampling/cyanomethane_geom.xyz.dir/cyanomethane_785.chk
%nproc=8
%mem=16000MB
#p B2PLYPD3/Def2QZVP 

cyanomethane

0 1
C  -6.587520  -1.113423   1.163531
C  -5.202442  -0.792731   0.895593
N  -4.098302  -0.536940   0.711428
H  -6.844591  -1.241588   2.264780
H  -6.836176  -2.046992   0.667175
H  -7.226750  -0.304036   0.815669

