%chk=/home/boittier/MDCM/nms_sampling/cyanomethane_geom.xyz.dir/cyanomethane_1618.chk
%nproc=8
%mem=16000MB
#p B2PLYPD3/Def2QZVP 

cyanomethane

0 1
C  -6.594227  -1.105158   1.175806
C  -5.203406  -0.803550   0.864855
N  -4.101360  -0.534452   0.724592
H  -6.749429  -1.217590   2.227262
H  -6.780007  -2.078384   0.733306
H  -7.241041  -0.318842   0.817465

