%chk=/home/boittier/MDCM/nms_sampling/cyanomethane_geom.xyz.dir/cyanomethane_3022.chk
%nproc=8
%mem=16000MB
#p B2PLYPD3/Def2QZVP 

cyanomethane

0 1
C  -6.597864  -1.108456   1.148841
C  -5.194489  -0.751288   0.884515
N  -4.091234  -0.562478   0.716620
H  -6.851999  -1.284475   2.266872
H  -6.795164  -2.038148   0.780303
H  -7.330335  -0.476193   0.891301

