%chk=/home/boittier/MDCM/nms_sampling/cyanomethane_geom.xyz.dir/cyanomethane_2829.chk
%nproc=8
%mem=16000MB
#p B2PLYPD3/Def2QZVP 

cyanomethane

0 1
C  -6.573779  -1.141666   1.159386
C  -5.205758  -0.737364   0.910603
N  -4.110012  -0.559324   0.702713
H  -6.823610  -1.276920   2.315294
H  -6.907501  -2.002457   0.591556
H  -7.138849  -0.307198   0.819735
