%chk=/home/boittier/MDCM/nms_sampling/cyanomethane_geom.xyz.dir/cyanomethane_2269.chk
%nproc=8
%mem=16000MB
#p B2PLYPD3/Def2QZVP 

cyanomethane

0 1
C  -6.601665  -1.118899   1.170310
C  -5.201990  -0.784728   0.925043
N  -4.095159  -0.540577   0.689274
H  -6.641399  -1.201311   2.203706
H  -6.886470  -2.087172   0.666933
H  -7.257035  -0.280074   0.749253
