%chk=/home/boittier/MDCM/nms_sampling/cyanomethane_geom.xyz.dir/cyanomethane_1998.chk
%nproc=8
%mem=16000MB
#p B2PLYPD3/Def2QZVP 

cyanomethane

0 1
C  -6.612395  -1.105800   1.176710
C  -5.199843  -0.827003   0.913166
N  -4.086119  -0.517581   0.698587
H  -6.730979  -1.195873   2.201224
H  -6.898721  -2.075996   0.642168
H  -7.179206  -0.269057   0.733748
