%chk=/home/boittier/MDCM/nms_sampling/cyanomethane_geom.xyz.dir/cyanomethane_1253.chk
%nproc=8
%mem=16000MB
#p B2PLYPD3/Def2QZVP 

cyanomethane

0 1
C  -6.607429  -1.118408   1.185896
C  -5.196267  -0.807078   0.873353
N  -4.091077  -0.529461   0.718246
H  -6.747348  -1.158065   2.207442
H  -6.865894  -2.021563   0.689831
H  -7.229049  -0.304003   0.755469
