%chk=/home/boittier/MDCM/nms_sampling/cyanomethane_geom.xyz.dir/cyanomethane_860.chk
%nproc=8
%mem=16000MB
#p B2PLYPD3/Def2QZVP 

cyanomethane

0 1
C  -6.597072  -1.117185   1.170110
C  -5.204273  -0.790534   0.887685
N  -4.094699  -0.535505   0.713660
H  -6.789379  -1.236494   2.247227
H  -6.876731  -2.035829   0.670415
H  -7.153785  -0.321478   0.810437

