%chk=/home/boittier/MDCM/nms_sampling/cyanomethane_geom.xyz.dir/cyanomethane_3572.chk
%nproc=8
%mem=16000MB
#p B2PLYPD3/Def2QZVP 

cyanomethane

0 1
C  -6.587478  -1.096727   1.165376
C  -5.205688  -0.808449   0.967566
N  -4.109212  -0.531497   0.672157
H  -6.722555  -1.247182   2.145930
H  -6.755227  -2.114527   0.586839
H  -7.240062  -0.291866   0.698781

