%chk=/home/boittier/MDCM/nms_sampling/cyanomethane_geom.xyz.dir/cyanomethane_2685.chk
%nproc=8
%mem=16000MB
#p B2PLYPD3/Def2QZVP 

cyanomethane

0 1
C  -6.567754  -1.115484   1.145297
C  -5.208422  -0.811712   0.891751
N  -4.108141  -0.529368   0.716778
H  -6.900505  -1.120061   2.335056
H  -6.782936  -1.990557   0.788514
H  -7.256104  -0.363893   0.810046
