%chk=/home/boittier/MDCM/nms_sampling/cyanomethane_geom.xyz.dir/cyanomethane_3334.chk
%nproc=8
%mem=16000MB
#p B2PLYPD3/Def2QZVP 

cyanomethane

0 1
C  -6.595221  -1.119666   1.161063
C  -5.200107  -0.783588   0.957632
N  -4.081641  -0.540476   0.667122
H  -6.592012  -1.201823   2.201156
H  -7.068234  -2.031878   0.670073
H  -7.414884  -0.331561   0.763673
