%chk=/home/boittier/MDCM/nms_sampling/cyanomethane_geom.xyz.dir/cyanomethane_2747.chk
%nproc=8
%mem=16000MB
#p B2PLYPD3/Def2QZVP 

cyanomethane

0 1
C  -6.619648  -1.115721   1.129649
C  -5.193054  -0.762895   0.958473
N  -4.090736  -0.553990   0.677324
H  -6.702287  -1.289387   2.229039
H  -6.763155  -1.995483   0.713266
H  -7.274211  -0.378244   0.902566
