%chk=/home/boittier/MDCM/nms_sampling/cyanomethane_geom.xyz.dir/cyanomethane_1075.chk
%nproc=8
%mem=16000MB
#p B2PLYPD3/Def2QZVP 

cyanomethane

0 1
C  -6.590642  -1.111735   1.163980
C  -5.203884  -0.790474   0.917949
N  -4.095278  -0.538908   0.695001
H  -6.722556  -1.244536   2.230717
H  -6.876408  -2.015251   0.656208
H  -7.296500  -0.345288   0.806645

