%chk=/home/boittier/MDCM/nms_sampling/cyanomethane_geom.xyz.dir/cyanomethane_2838.chk
%nproc=8
%mem=16000MB
#p B2PLYPD3/Def2QZVP 

cyanomethane

0 1
C  -6.578534  -1.102968   1.147895
C  -5.207339  -0.860727   0.925672
N  -4.098294  -0.501227   0.698648
H  -6.894015  -1.116483   2.250880
H  -6.866504  -1.933890   0.733593
H  -7.200938  -0.361665   0.784614

