%chk=/home/boittier/MDCM/nms_sampling/cyanomethane_geom.xyz.dir/cyanomethane_3490.chk
%nproc=8
%mem=16000MB
#p B2PLYPD3/Def2QZVP 

cyanomethane

0 1
C  -6.596979  -1.122600   1.159770
C  -5.197520  -0.790190   0.864868
N  -4.085391  -0.539766   0.730568
H  -6.970980  -1.122020   2.294814
H  -6.808757  -2.004047   0.792864
H  -7.255185  -0.381839   0.794996
