%chk=/home/boittier/MDCM/nms_sampling/cyanomethane_geom.xyz.dir/cyanomethane_1458.chk
%nproc=8
%mem=16000MB
#p B2PLYPD3/Def2QZVP 

cyanomethane

0 1
C  -6.584207  -1.124790   1.162268
C  -5.202239  -0.766611   0.914344
N  -4.100179  -0.552459   0.699047
H  -6.788516  -1.197598   2.249802
H  -6.812093  -2.016112   0.673760
H  -7.324535  -0.341956   0.775077
