%chk=/home/boittier/MDCM/nms_sampling/cyanomethane_geom.xyz.dir/cyanomethane_585.chk
%nproc=8
%mem=16000MB
#p B2PLYPD3/Def2QZVP 

cyanomethane

0 1
C  -6.592953  -1.106905   1.164668
C  -5.204543  -0.815841   0.915164
N  -4.097296  -0.526007   0.698071
H  -6.729149  -1.198684   2.231134
H  -6.848741  -2.058284   0.683224
H  -7.253029  -0.291481   0.777727
