%chk=/home/boittier/MDCM/nms_sampling/cyanomethane_geom.xyz.dir/cyanomethane_2484.chk
%nproc=8
%mem=16000MB
#p B2PLYPD3/Def2QZVP 

cyanomethane

0 1
C  -6.592721  -1.152820   1.156389
C  -5.205745  -0.716821   0.918098
N  -4.107234  -0.574615   0.696707
H  -6.709638  -1.116605   2.170935
H  -6.774100  -2.095065   0.806067
H  -7.192245  -0.307727   0.759859

