%chk=/home/boittier/MDCM/nms_sampling/cyanomethane_geom.xyz.dir/cyanomethane_2768.chk
%nproc=8
%mem=16000MB
#p B2PLYPD3/Def2QZVP 

cyanomethane

0 1
C  -6.620106  -1.139322   1.150951
C  -5.196351  -0.748657   0.961839
N  -4.080129  -0.554120   0.675121
H  -6.756739  -1.190075   2.233010
H  -6.919756  -2.136978   0.657179
H  -7.163488  -0.226701   0.723565
