%chk=/home/boittier/MDCM/nms_sampling/cyanomethane_geom.xyz.dir/cyanomethane_917.chk
%nproc=8
%mem=16000MB
#p B2PLYPD3/Def2QZVP 

cyanomethane

0 1
C  -6.589411  -1.116282   1.156352
C  -5.202341  -0.774325   0.906489
N  -4.098415  -0.547262   0.704071
H  -6.789943  -1.246771   2.246255
H  -6.830328  -2.039409   0.704712
H  -7.263618  -0.347117   0.837633
