%chk=/home/boittier/MDCM/nms_sampling/cyanomethane_geom.xyz.dir/cyanomethane_1160.chk
%nproc=8
%mem=16000MB
#p B2PLYPD3/Def2QZVP 

cyanomethane

0 1
C  -6.597049  -1.112227   1.156730
C  -5.203793  -0.805611   0.917566
N  -4.096353  -0.530622   0.698561
H  -6.756512  -1.197359   2.249533
H  -6.824166  -2.029141   0.697192
H  -7.223839  -0.315989   0.798615

