%chk=/home/boittier/MDCM/nms_sampling/cyanomethane_geom.xyz.dir/cyanomethane_3517.chk
%nproc=8
%mem=16000MB
#p B2PLYPD3/Def2QZVP 

cyanomethane

0 1
C  -6.592416  -1.117074   1.150123
C  -5.204581  -0.759798   0.914692
N  -4.107573  -0.555765   0.700438
H  -6.745845  -1.270275   2.142228
H  -6.726867  -2.036550   0.762559
H  -7.217119  -0.367110   0.894472
