%chk=/home/boittier/MDCM/nms_sampling/cyanomethane_geom.xyz.dir/cyanomethane_459.chk
%nproc=8
%mem=16000MB
#p B2PLYPD3/Def2QZVP 

cyanomethane

0 1
C  -6.590677  -1.120863   1.168638
C  -5.204020  -0.778076   0.902065
N  -4.095203  -0.543619   0.705279
H  -6.783750  -1.219956   2.267937
H  -6.872849  -2.045951   0.650840
H  -7.237724  -0.319689   0.772016

