%chk=/home/boittier/MDCM/nms_sampling/cyanomethane_geom.xyz.dir/cyanomethane_2223.chk
%nproc=8
%mem=16000MB
#p B2PLYPD3/Def2QZVP 

cyanomethane

0 1
C  -6.584467  -1.125956   1.155837
C  -5.202972  -0.770525   0.933554
N  -4.101853  -0.545508   0.687643
H  -6.742104  -1.222000   2.214249
H  -6.918239  -1.975419   0.675328
H  -7.228661  -0.379013   0.807637

