%chk=/home/boittier/MDCM/nms_sampling/cyanomethane_geom.xyz.dir/cyanomethane_2386.chk
%nproc=8
%mem=16000MB
#p B2PLYPD3/Def2QZVP 

cyanomethane

0 1
C  -6.597228  -1.111092   1.156243
C  -5.207458  -0.786533   0.943999
N  -4.098424  -0.540343   0.680044
H  -6.619384  -1.245365   2.198259
H  -6.855850  -2.026728   0.673776
H  -7.253356  -0.359686   0.805204
