%chk=/home/boittier/MDCM/nms_sampling/cyanomethane_geom.xyz.dir/cyanomethane_3215.chk
%nproc=8
%mem=16000MB
#p B2PLYPD3/Def2QZVP 

cyanomethane

0 1
C  -6.579804  -1.113118   1.133344
C  -5.202491  -0.768221   0.962591
N  -4.105217  -0.549277   0.675053
H  -6.766880  -1.250063   2.246617
H  -6.870846  -1.988548   0.710180
H  -7.268560  -0.459018   0.828503

