%chk=/home/boittier/MDCM/nms_sampling/cyanomethane_geom.xyz.dir/cyanomethane_2966.chk
%nproc=8
%mem=16000MB
#p B2PLYPD3/Def2QZVP 

cyanomethane

0 1
C  -6.572862  -1.107387   1.147542
C  -5.208854  -0.829738   0.874258
N  -4.107365  -0.518742   0.727710
H  -6.925167  -1.195690   2.306610
H  -6.773915  -2.026980   0.774198
H  -7.180677  -0.273095   0.892271
