%chk=/home/boittier/MDCM/nms_sampling/cyanomethane_geom.xyz.dir/cyanomethane_3299.chk
%nproc=8
%mem=16000MB
#p B2PLYPD3/Def2QZVP 

cyanomethane

0 1
C  -6.577206  -1.110517   1.186961
C  -5.200769  -0.813034   0.840523
N  -4.105016  -0.525677   0.730877
H  -6.684030  -1.195705   2.283266
H  -6.999692  -1.960331   0.723805
H  -7.274700  -0.410439   0.826780

