%chk=/home/boittier/MDCM/nms_sampling/cyanomethane_geom.xyz.dir/cyanomethane_2132.chk
%nproc=8
%mem=16000MB
#p B2PLYPD3/Def2QZVP 

cyanomethane

0 1
C  -6.582460  -1.102118   1.167995
C  -5.203642  -0.833998   0.904116
N  -4.100488  -0.516145   0.703836
H  -6.766939  -1.222330   2.224180
H  -6.891033  -2.006439   0.664585
H  -7.265828  -0.294912   0.817425
