%chk=/home/boittier/MDCM/nms_sampling/cyanomethane_geom.xyz.dir/cyanomethane_3071.chk
%nproc=8
%mem=16000MB
#p B2PLYPD3/Def2QZVP 

cyanomethane

0 1
C  -6.623549  -1.121862   1.150756
C  -5.190462  -0.823866   0.945664
N  -4.085901  -0.511406   0.683596
H  -6.739824  -1.240784   2.163181
H  -7.003215  -1.994862   0.663774
H  -7.044134  -0.213567   0.871871
