%chk=/home/boittier/MDCM/nms_sampling/cyanomethane_geom.xyz.dir/cyanomethane_956.chk
%nproc=8
%mem=16000MB
#p B2PLYPD3/Def2QZVP 

cyanomethane

0 1
C  -6.595707  -1.110187   1.160930
C  -5.202551  -0.784344   0.907054
N  -4.097331  -0.541382   0.703478
H  -6.762798  -1.274413   2.242149
H  -6.835190  -2.073325   0.671653
H  -7.221972  -0.314208   0.830693

