%chk=/home/boittier/MDCM/nms_sampling/cyanomethane_geom.xyz.dir/cyanomethane_124.chk
%nproc=8
%mem=16000MB
#p B2PLYPD3/Def2QZVP 

cyanomethane

0 1
C  -6.604874  -1.112756   1.173619
C  -5.198355  -0.793433   0.882608
N  -4.091154  -0.537268   0.714375
H  -6.754142  -1.232916   2.208966
H  -6.847117  -2.034978   0.697334
H  -7.244639  -0.325772   0.824313

