%chk=/home/boittier/MDCM/nms_sampling/cyanomethane_geom.xyz.dir/cyanomethane_2037.chk
%nproc=8
%mem=16000MB
#p B2PLYPD3/Def2QZVP 

cyanomethane

0 1
C  -6.610166  -1.121510   1.170886
C  -5.197111  -0.765843   0.889978
N  -4.089893  -0.552435   0.708945
H  -6.701247  -1.204687   2.243645
H  -6.830812  -2.059575   0.712306
H  -7.283485  -0.348443   0.785507
