%chk=/home/boittier/MDCM/nms_sampling/cyanomethane_geom.xyz.dir/cyanomethane_1161.chk
%nproc=8
%mem=16000MB
#p B2PLYPD3/Def2QZVP 

cyanomethane

0 1
C  -6.601044  -1.118051   1.162844
C  -5.203251  -0.795764   0.920684
N  -4.092998  -0.533700   0.695480
H  -6.740155  -1.191276   2.220676
H  -6.871727  -2.035886   0.683805
H  -7.197076  -0.317026   0.772013
