%chk=/home/boittier/MDCM/nms_sampling/cyanomethane_geom.xyz.dir/cyanomethane_1184.chk
%nproc=8
%mem=16000MB
#p B2PLYPD3/Def2QZVP 

cyanomethane

0 1
C  -6.588660  -1.110852   1.160027
C  -5.203672  -0.796277   0.899079
N  -4.097991  -0.534778   0.708379
H  -6.803256  -1.239342   2.263319
H  -6.859225  -2.022007   0.690122
H  -7.221330  -0.349637   0.828983
