%chk=/home/boittier/MDCM/nms_sampling/cyanomethane_geom.xyz.dir/cyanomethane_2847.chk
%nproc=8
%mem=16000MB
#p B2PLYPD3/Def2QZVP 

cyanomethane

0 1
C  -6.620786  -1.108210   1.127278
C  -5.196164  -0.813053   0.985042
N  -4.085623  -0.527910   0.666066
H  -6.740939  -1.162794   2.198293
H  -6.775615  -2.080779   0.759428
H  -7.243286  -0.285247   0.790128

