%chk=/home/boittier/MDCM/nms_sampling/cyanomethane_geom.xyz.dir/cyanomethane_48.chk
%nproc=8
%mem=16000MB
#p B2PLYPD3/Def2QZVP 

cyanomethane

0 1
C  -6.604759  -1.120823   1.164368
C  -5.197616  -0.770568   0.909866
N  -4.090976  -0.546487   0.700391
H  -6.748754  -1.250148   2.233815
H  -6.892101  -2.064332   0.668737
H  -7.217908  -0.314423   0.806533
