%chk=/home/boittier/MDCM/nms_sampling/cyanomethane_geom.xyz.dir/cyanomethane_1283.chk
%nproc=8
%mem=16000MB
#p B2PLYPD3/Def2QZVP 

cyanomethane

0 1
C  -6.612216  -1.132192   1.170467
C  -5.199630  -0.781040   0.873468
N  -4.085399  -0.540910   0.721669
H  -6.813289  -1.154437   2.238584
H  -6.839954  -2.005106   0.735680
H  -7.169623  -0.312585   0.802356

