%chk=/home/boittier/MDCM/nms_sampling/cyanomethane_geom.xyz.dir/cyanomethane_154.chk
%nproc=8
%mem=16000MB
#p B2PLYPD3/Def2QZVP 

cyanomethane

0 1
C  -6.589645  -1.113165   1.168740
C  -5.204067  -0.787735   0.905733
N  -4.094933  -0.542016   0.702777
H  -6.767385  -1.219672   2.233460
H  -6.826242  -2.052725   0.667124
H  -7.316043  -0.314606   0.779796

