%chk=/home/boittier/MDCM/nms_sampling/cyanomethane_geom.xyz.dir/cyanomethane_1367.chk
%nproc=8
%mem=16000MB
#p B2PLYPD3/Def2QZVP 

cyanomethane

0 1
C  -6.585766  -1.104016   1.166081
C  -5.202537  -0.804501   0.941231
N  -4.100622  -0.534321   0.682487
H  -6.706183  -1.209734   2.174302
H  -6.838401  -2.048444   0.655192
H  -7.351712  -0.334705   0.745063

