%chk=/home/boittier/MDCM/nms_sampling/cyanomethane_geom.xyz.dir/cyanomethane_297.chk
%nproc=8
%mem=16000MB
#p B2PLYPD3/Def2QZVP 

cyanomethane

0 1
C  -6.598916  -1.114359   1.174902
C  -5.198645  -0.810186   0.902121
N  -4.091683  -0.526279   0.704442
H  -6.770299  -1.202111   2.231577
H  -6.914182  -2.041209   0.644513
H  -7.223770  -0.278370   0.764140
