%chk=/home/boittier/MDCM/nms_sampling/cyanomethane_geom.xyz.dir/cyanomethane_3312.chk
%nproc=8
%mem=16000MB
#p B2PLYPD3/Def2QZVP 

cyanomethane

0 1
C  -6.629610  -1.120017   1.173034
C  -5.189245  -0.799092   0.954184
N  -4.084719  -0.531985   0.669645
H  -6.530697  -1.174127   2.127866
H  -6.943828  -1.975678   0.644461
H  -7.274988  -0.343904   0.733707

