%chk=/home/boittier/MDCM/nms_sampling/cyanomethane_geom.xyz.dir/cyanomethane_1091.chk
%nproc=8
%mem=16000MB
#p B2PLYPD3/Def2QZVP 

cyanomethane

0 1
C  -6.591196  -1.114674   1.157098
C  -5.201709  -0.785657   0.926904
N  -4.098174  -0.541466   0.693009
H  -6.768519  -1.209388   2.247369
H  -6.837033  -2.042245   0.679062
H  -7.269710  -0.344265   0.774376
