%chk=/home/boittier/MDCM/nms_sampling/cyanomethane_geom.xyz.dir/cyanomethane_702.chk
%nproc=8
%mem=16000MB
#p B2PLYPD3/Def2QZVP 

cyanomethane

0 1
C  -6.599447  -1.110620   1.160878
C  -5.198414  -0.809758   0.914109
N  -4.090513  -0.527532   0.700728
H  -6.810112  -1.207087   2.253136
H  -6.879236  -2.048852   0.674926
H  -7.232348  -0.297147   0.785625

