%chk=/home/boittier/MDCM/nms_sampling/cyanomethane_geom.xyz.dir/cyanomethane_2522.chk
%nproc=8
%mem=16000MB
#p B2PLYPD3/Def2QZVP 

cyanomethane

0 1
C  -6.599256  -1.129028   1.174470
C  -5.199330  -0.728821   0.893256
N  -4.084537  -0.570763   0.710150
H  -6.852393  -1.195593   2.295519
H  -6.854171  -2.100263   0.663355
H  -7.291547  -0.411845   0.685226

