%chk=/home/boittier/MDCM/nms_sampling/cyanomethane_geom.xyz.dir/cyanomethane_2970.chk
%nproc=8
%mem=16000MB
#p B2PLYPD3/Def2QZVP 

cyanomethane

0 1
C  -6.614064  -1.091451   1.158902
C  -5.198629  -0.815150   0.961828
N  -4.084047  -0.529050   0.671093
H  -6.655918  -1.276664   2.100286
H  -6.835623  -2.055956   0.661171
H  -7.340412  -0.340112   0.805918

