%chk=/home/boittier/MDCM/nms_sampling/cyanomethane_geom.xyz.dir/cyanomethane_995.chk
%nproc=8
%mem=16000MB
#p B2PLYPD3/Def2QZVP 

cyanomethane

0 1
C  -6.605162  -1.123034   1.165067
C  -5.199278  -0.777140   0.899672
N  -4.092160  -0.543635   0.706124
H  -6.750462  -1.207714   2.229950
H  -6.861179  -2.028755   0.705198
H  -7.206345  -0.337909   0.805108
