%chk=/home/boittier/MDCM/nms_sampling/cyanomethane_geom.xyz.dir/cyanomethane_2555.chk
%nproc=8
%mem=16000MB
#p B2PLYPD3/Def2QZVP 

cyanomethane

0 1
C  -6.585914  -1.112194   1.156778
C  -5.202407  -0.754841   0.906743
N  -4.106822  -0.558059   0.704778
H  -6.789604  -1.360261   2.283204
H  -6.767109  -2.022606   0.604304
H  -7.252411  -0.361652   0.880044

