%chk=/home/boittier/MDCM/nms_sampling/cyanomethane_geom.xyz.dir/cyanomethane_383.chk
%nproc=8
%mem=16000MB
#p B2PLYPD3/Def2QZVP 

cyanomethane

0 1
C  -6.588907  -1.122706   1.166322
C  -5.204360  -0.789300   0.892540
N  -4.096600  -0.536849   0.710723
H  -6.795621  -1.209784   2.231873
H  -6.883406  -2.011925   0.696445
H  -7.211213  -0.306362   0.824479
