%chk=/home/boittier/MDCM/nms_sampling/cyanomethane_geom.xyz.dir/cyanomethane_990.chk
%nproc=8
%mem=16000MB
#p B2PLYPD3/Def2QZVP 

cyanomethane

0 1
C  -6.588498  -1.117310   1.173761
C  -5.202634  -0.798872   0.886059
N  -4.099246  -0.533731   0.712729
H  -6.762292  -1.185583   2.242513
H  -6.872000  -2.039739   0.694884
H  -7.245359  -0.303907   0.781866

