%chk=/home/boittier/MDCM/nms_sampling/cyanomethane_geom.xyz.dir/cyanomethane_3538.chk
%nproc=8
%mem=16000MB
#p B2PLYPD3/Def2QZVP 

cyanomethane

0 1
C  -6.598663  -1.108869   1.175192
C  -5.198940  -0.780111   0.932776
N  -4.081023  -0.540588   0.681199
H  -6.651200  -1.286824   2.213573
H  -7.084506  -2.046417   0.597283
H  -7.321381  -0.389930   0.758008

