%chk=/home/boittier/MDCM/nms_sampling/cyanomethane_geom.xyz.dir/cyanomethane_509.chk
%nproc=8
%mem=16000MB
#p B2PLYPD3/Def2QZVP 

cyanomethane

0 1
C  -6.604820  -1.113404   1.164376
C  -5.197559  -0.804391   0.913976
N  -4.090633  -0.528916   0.699872
H  -6.780903  -1.205850   2.224476
H  -6.893798  -2.055472   0.679390
H  -7.189848  -0.301575   0.778652

