%chk=/home/boittier/MDCM/nms_sampling/cyanomethane_geom.xyz.dir/cyanomethane_3109.chk
%nproc=8
%mem=16000MB
#p B2PLYPD3/Def2QZVP 

cyanomethane

0 1
C  -6.587936  -1.101133   1.171819
C  -5.205516  -0.855681   0.914000
N  -4.109710  -0.507701   0.696250
H  -6.623295  -1.130744   2.227995
H  -6.805339  -2.003542   0.683207
H  -7.279606  -0.273789   0.747129

