%chk=/home/boittier/MDCM/nms_sampling/cyanomethane_geom.xyz.dir/cyanomethane_1320.chk
%nproc=8
%mem=16000MB
#p B2PLYPD3/Def2QZVP 

cyanomethane

0 1
C  -6.598228  -1.113605   1.161468
C  -5.196023  -0.792620   0.884293
N  -4.089667  -0.537827   0.716564
H  -6.857959  -1.229367   2.229726
H  -6.850813  -1.990998   0.728891
H  -7.267335  -0.366832   0.860661
