%chk=/home/boittier/MDCM/nms_sampling/cyanomethane_geom.xyz.dir/cyanomethane_1264.chk
%nproc=8
%mem=16000MB
#p B2PLYPD3/Def2QZVP 

cyanomethane

0 1
C  -6.604690  -1.106664   1.169283
C  -5.199949  -0.802342   0.919393
N  -4.084801  -0.530351   0.693067
H  -6.702414  -1.278417   2.260066
H  -6.958451  -2.041923   0.598490
H  -7.259083  -0.313490   0.792642
