%chk=/home/boittier/MDCM/nms_sampling/cyanomethane_geom.xyz.dir/cyanomethane_121.chk
%nproc=8
%mem=16000MB
#p B2PLYPD3/Def2QZVP 

cyanomethane

0 1
C  -6.598718  -1.110605   1.170807
C  -5.200323  -0.801385   0.883636
N  -4.090029  -0.533253   0.714371
H  -6.776341  -1.228787   2.257146
H  -6.870407  -2.034633   0.683643
H  -7.266642  -0.317962   0.817166
