%chk=/home/boittier/MDCM/nms_sampling/cyanomethane_geom.xyz.dir/cyanomethane_1156.chk
%nproc=8
%mem=16000MB
#p B2PLYPD3/Def2QZVP 

cyanomethane

0 1
C  -6.593310  -1.107263   1.162928
C  -5.203138  -0.802041   0.917114
N  -4.094806  -0.531211   0.698216
H  -6.782864  -1.255961   2.239136
H  -6.879382  -2.034018   0.641923
H  -7.216767  -0.333467   0.800837

