%chk=/home/boittier/MDCM/nms_sampling/cyanomethane_geom.xyz.dir/cyanomethane_1274.chk
%nproc=8
%mem=16000MB
#p B2PLYPD3/Def2QZVP 

cyanomethane

0 1
C  -6.597883  -1.126848   1.164031
C  -5.197989  -0.748952   0.896270
N  -4.087916  -0.557324   0.707723
H  -6.801866  -1.272259   2.278933
H  -6.925366  -2.062363   0.662308
H  -7.252774  -0.331218   0.823843
