%chk=/home/boittier/MDCM/nms_sampling/cyanomethane_geom.xyz.dir/cyanomethane_1480.chk
%nproc=8
%mem=16000MB
#p B2PLYPD3/Def2QZVP 

cyanomethane

0 1
C  -6.609645  -1.109002   1.180131
C  -5.197992  -0.792765   0.876636
N  -4.092321  -0.539262   0.718977
H  -6.771184  -1.237708   2.256025
H  -6.774516  -2.069562   0.644146
H  -7.232766  -0.312555   0.772473

