%chk=/home/boittier/MDCM/nms_sampling/cyanomethane_geom.xyz.dir/cyanomethane_921.chk
%nproc=8
%mem=16000MB
#p B2PLYPD3/Def2QZVP 

cyanomethane

0 1
C  -6.602971  -1.111299   1.163206
C  -5.198223  -0.795711   0.918075
N  -4.090364  -0.535747   0.695002
H  -6.715723  -1.232784   2.239896
H  -6.886561  -2.026248   0.664468
H  -7.281382  -0.334920   0.799959

