%chk=/home/boittier/MDCM/nms_sampling/cyanomethane_geom.xyz.dir/cyanomethane_3389.chk
%nproc=8
%mem=16000MB
#p B2PLYPD3/Def2QZVP 

cyanomethane

0 1
C  -6.598196  -1.083269   1.164964
C  -5.211420  -0.868219   0.903507
N  -4.099258  -0.501663   0.702351
H  -6.610878  -1.207017   2.233726
H  -6.805720  -2.027973   0.714778
H  -7.241682  -0.315340   0.823721

