%chk=/home/boittier/MDCM/nms_sampling/cyanomethane_geom.xyz.dir/cyanomethane_1462.chk
%nproc=8
%mem=16000MB
#p B2PLYPD3/Def2QZVP 

cyanomethane

0 1
C  -6.595573  -1.110272   1.170689
C  -5.203058  -0.760738   0.900670
N  -4.100708  -0.556863   0.706411
H  -6.752143  -1.265307   2.270142
H  -6.751078  -2.128901   0.641700
H  -7.266743  -0.338921   0.751956
