%chk=/home/boittier/MDCM/nms_sampling/cyanomethane_geom.xyz.dir/cyanomethane_742.chk
%nproc=8
%mem=16000MB
#p B2PLYPD3/Def2QZVP 

cyanomethane

0 1
C  -6.596469  -1.109958   1.168828
C  -5.205125  -0.809322   0.910532
N  -4.096551  -0.526541   0.699090
H  -6.701285  -1.222388   2.218611
H  -6.901067  -2.028276   0.666590
H  -7.189283  -0.325228   0.791299

