%chk=/home/boittier/MDCM/nms_sampling/cyanomethane_geom.xyz.dir/cyanomethane_1837.chk
%nproc=8
%mem=16000MB
#p B2PLYPD3/Def2QZVP 

cyanomethane

0 1
C  -6.587429  -1.106558   1.166549
C  -5.205334  -0.775767   0.919709
N  -4.095564  -0.549135   0.695986
H  -6.771611  -1.268459   2.254521
H  -6.810346  -2.110821   0.624220
H  -7.330909  -0.319245   0.757837
