%chk=/home/boittier/MDCM/nms_sampling/cyanomethane_geom.xyz.dir/cyanomethane_2727.chk
%nproc=8
%mem=16000MB
#p B2PLYPD3/Def2QZVP 

cyanomethane

0 1
C  -6.600079  -1.099667   1.159138
C  -5.191392  -0.816909   0.943678
N  -4.089376  -0.527772   0.678710
H  -6.669302  -1.259832   2.189582
H  -6.918840  -1.970060   0.646110
H  -7.427316  -0.350557   0.835162
