%chk=/home/boittier/MDCM/nms_sampling/cyanomethane_geom.xyz.dir/cyanomethane_736.chk
%nproc=8
%mem=16000MB
#p B2PLYPD3/Def2QZVP 

cyanomethane

0 1
C  -6.594083  -1.119296   1.159521
C  -5.199713  -0.782354   0.926347
N  -4.093730  -0.539939   0.692241
H  -6.767357  -1.244480   2.239203
H  -6.921366  -2.036432   0.648234
H  -7.236233  -0.310974   0.802103
