%chk=/home/boittier/MDCM/nms_sampling/cyanomethane_geom.xyz.dir/cyanomethane_1936.chk
%nproc=8
%mem=16000MB
#p B2PLYPD3/Def2QZVP 

cyanomethane

0 1
C  -6.596272  -1.119563   1.185102
C  -5.203732  -0.797239   0.876251
N  -4.100642  -0.533821   0.717471
H  -6.730636  -1.203886   2.243324
H  -6.835616  -2.043577   0.636532
H  -7.186939  -0.269381   0.763337

