%chk=/home/boittier/MDCM/nms_sampling/cyanomethane_geom.xyz.dir/cyanomethane_3088.chk
%nproc=8
%mem=16000MB
#p B2PLYPD3/Def2QZVP 

cyanomethane

0 1
C  -6.568511  -1.113455   1.182923
C  -5.214392  -0.739837   0.868763
N  -4.103811  -0.564754   0.717931
H  -6.721610  -1.319082   2.266627
H  -6.910894  -2.074512   0.643526
H  -7.282536  -0.439382   0.801095

