%chk=/home/boittier/MDCM/nms_sampling/cyanomethane_geom.xyz.dir/cyanomethane_3504.chk
%nproc=8
%mem=16000MB
#p B2PLYPD3/Def2QZVP 

cyanomethane

0 1
C  -6.602896  -1.120323   1.174534
C  -5.198364  -0.729706   0.909983
N  -4.078625  -0.571940   0.700451
H  -6.833738  -1.268428   2.294589
H  -6.853712  -2.119802   0.589541
H  -7.361190  -0.379867   0.699728
