%chk=/home/boittier/MDCM/nms_sampling/cyanomethane_geom.xyz.dir/cyanomethane_770.chk
%nproc=8
%mem=16000MB
#p B2PLYPD3/Def2QZVP 

cyanomethane

0 1
C  -6.607280  -1.112927   1.175872
C  -5.200372  -0.802252   0.889844
N  -4.089038  -0.530536   0.710347
H  -6.740544  -1.229654   2.224650
H  -6.887901  -2.029842   0.659893
H  -7.194617  -0.314991   0.797706

