%chk=/home/boittier/MDCM/nms_sampling/cyanomethane_geom.xyz.dir/cyanomethane_3065.chk
%nproc=8
%mem=16000MB
#p B2PLYPD3/Def2QZVP 

cyanomethane

0 1
C  -6.590739  -1.106026   1.153540
C  -5.201470  -0.817374   0.868387
N  -4.084793  -0.522688   0.730913
H  -7.013011  -1.297556   2.304991
H  -6.867876  -2.006807   0.686388
H  -7.187391  -0.280772   0.933566

