%chk=/home/boittier/MDCM/nms_sampling/cyanomethane_geom.xyz.dir/cyanomethane_1337.chk
%nproc=8
%mem=16000MB
#p B2PLYPD3/Def2QZVP 

cyanomethane

0 1
C  -6.599825  -1.117147   1.168119
C  -5.200610  -0.759393   0.893457
N  -4.096180  -0.554817   0.709399
H  -6.752853  -1.309897   2.225492
H  -6.810521  -2.071037   0.650647
H  -7.245058  -0.307016   0.853043

