%chk=/home/boittier/MDCM/nms_sampling/cyanomethane_geom.xyz.dir/cyanomethane_911.chk
%nproc=8
%mem=16000MB
#p B2PLYPD3/Def2QZVP 

cyanomethane

0 1
C  -6.595203  -1.113020   1.165912
C  -5.204563  -0.785994   0.899884
N  -4.097268  -0.542462   0.706231
H  -6.738779  -1.218642   2.253608
H  -6.801264  -2.061423   0.689242
H  -7.263943  -0.326308   0.790020

