%chk=/home/boittier/MDCM/nms_sampling/cyanomethane_geom.xyz.dir/cyanomethane_1203.chk
%nproc=8
%mem=16000MB
#p B2PLYPD3/Def2QZVP 

cyanomethane

0 1
C  -6.582718  -1.112889   1.155121
C  -5.205580  -0.758081   0.906965
N  -4.097755  -0.557603   0.703624
H  -6.805900  -1.265220   2.232012
H  -6.813326  -2.064533   0.724502
H  -7.315369  -0.394002   0.836482

