%chk=/home/boittier/MDCM/nms_sampling/cyanomethane_geom.xyz.dir/cyanomethane_880.chk
%nproc=8
%mem=16000MB
#p B2PLYPD3/Def2QZVP 

cyanomethane

0 1
C  -6.595637  -1.108413   1.163183
C  -5.203221  -0.818433   0.911995
N  -4.097659  -0.523850   0.701096
H  -6.762037  -1.197992   2.203252
H  -6.834111  -2.022232   0.697629
H  -7.213071  -0.308751   0.801838

