%chk=/home/boittier/MDCM/nms_sampling/cyanomethane_geom.xyz.dir/cyanomethane_1816.chk
%nproc=8
%mem=16000MB
#p B2PLYPD3/Def2QZVP 

cyanomethane

0 1
C  -6.595285  -1.108759   1.149725
C  -5.207402  -0.789732   0.958391
N  -4.096734  -0.537387   0.678439
H  -6.764232  -1.253508   2.199955
H  -6.828198  -2.097049   0.651033
H  -7.183538  -0.304111   0.774035

