%chk=/home/boittier/MDCM/nms_sampling/cyanomethane_geom.xyz.dir/cyanomethane_2294.chk
%nproc=8
%mem=16000MB
#p B2PLYPD3/Def2QZVP 

cyanomethane

0 1
C  -6.602022  -1.103203   1.166772
C  -5.197426  -0.810634   0.882994
N  -4.087814  -0.529818   0.713993
H  -6.758409  -1.243457   2.240366
H  -6.875435  -2.029448   0.716816
H  -7.304909  -0.335242   0.855682

