%chk=/home/boittier/MDCM/nms_sampling/cyanomethane_geom.xyz.dir/cyanomethane_2742.chk
%nproc=8
%mem=16000MB
#p B2PLYPD3/Def2QZVP 

cyanomethane

0 1
C  -6.610197  -1.122427   1.174661
C  -5.189717  -0.772992   0.942978
N  -4.086895  -0.545955   0.679407
H  -6.689697  -1.219905   2.256437
H  -6.944568  -2.045111   0.553659
H  -7.315434  -0.313609   0.687682
