%chk=/home/boittier/MDCM/nms_sampling/cyanomethane_geom.xyz.dir/cyanomethane_3193.chk
%nproc=8
%mem=16000MB
#p B2PLYPD3/Def2QZVP 

cyanomethane

0 1
C  -6.613364  -1.110101   1.138084
C  -5.193425  -0.836248   0.958969
N  -4.091434  -0.513541   0.678758
H  -6.753518  -1.151313   2.192335
H  -6.843001  -2.025277   0.750630
H  -7.203822  -0.258229   0.816768
