%chk=/home/boittier/MDCM/nms_sampling/cyanomethane_geom.xyz.dir/cyanomethane_2576.chk
%nproc=8
%mem=16000MB
#p B2PLYPD3/Def2QZVP 

cyanomethane

0 1
C  -6.570158  -1.114725   1.159134
C  -5.209409  -0.770623   0.955195
N  -4.102452  -0.548719   0.673476
H  -6.698774  -1.273180   2.134434
H  -6.922176  -2.006701   0.647572
H  -7.353199  -0.371519   0.811566

