%chk=/home/boittier/MDCM/nms_sampling/cyanomethane_geom.xyz.dir/cyanomethane_245.chk
%nproc=8
%mem=16000MB
#p B2PLYPD3/Def2QZVP 

cyanomethane

0 1
C  -6.602035  -1.106008   1.168908
C  -5.200359  -0.797868   0.885132
N  -4.094939  -0.536056   0.713797
H  -6.744404  -1.242116   2.241555
H  -6.818538  -2.051309   0.701289
H  -7.241214  -0.344840   0.822834

