%chk=/home/boittier/MDCM/nms_sampling/cyanomethane_geom.xyz.dir/cyanomethane_19.chk
%nproc=8
%mem=16000MB
#p B2PLYPD3/Def2QZVP 

cyanomethane

0 1
C  -6.599681  -1.107272   1.167997
C  -5.197508  -0.812209   0.903939
N  -4.090850  -0.528269   0.704636
H  -6.788588  -1.211338   2.256021
H  -6.856714  -2.027237   0.657874
H  -7.280800  -0.318317   0.780095

