%chk=/home/boittier/MDCM/nms_sampling/cyanomethane_geom.xyz.dir/cyanomethane_1586.chk
%nproc=8
%mem=16000MB
#p B2PLYPD3/Def2QZVP 

cyanomethane

0 1
C  -6.611045  -1.124066   1.172766
C  -5.200187  -0.757265   0.904717
N  -4.087622  -0.556682   0.701393
H  -6.705670  -1.203222   2.193952
H  -6.816055  -2.078210   0.697805
H  -7.277238  -0.337600   0.758074
