%chk=/home/boittier/MDCM/nms_sampling/cyanomethane_geom.xyz.dir/cyanomethane_3246.chk
%nproc=8
%mem=16000MB
#p B2PLYPD3/Def2QZVP 

cyanomethane

0 1
C  -6.603618  -1.129835   1.155498
C  -5.198743  -0.748719   0.956644
N  -4.082540  -0.553832   0.677480
H  -6.820488  -1.268568   2.229772
H  -6.970335  -2.025089   0.587888
H  -7.188802  -0.361119   0.758646

