%chk=/home/boittier/MDCM/nms_sampling/cyanomethane_geom.xyz.dir/cyanomethane_1790.chk
%nproc=8
%mem=16000MB
#p B2PLYPD3/Def2QZVP 

cyanomethane

0 1
C  -6.601607  -1.124614   1.180815
C  -5.195114  -0.747360   0.895807
N  -4.090422  -0.560272   0.706210
H  -6.772495  -1.262390   2.242431
H  -6.877648  -2.065946   0.604232
H  -7.285980  -0.341407   0.751265
