%chk=/home/boittier/MDCM/nms_sampling/cyanomethane_geom.xyz.dir/cyanomethane_1146.chk
%nproc=8
%mem=16000MB
#p B2PLYPD3/Def2QZVP 

cyanomethane

0 1
C  -6.598163  -1.108993   1.158012
C  -5.201609  -0.795755   0.926967
N  -4.094798  -0.536281   0.690867
H  -6.703608  -1.240874   2.230271
H  -6.858184  -2.025675   0.673456
H  -7.277113  -0.343843   0.811796

