%chk=/home/boittier/MDCM/nms_sampling/cyanomethane_geom.xyz.dir/cyanomethane_1657.chk
%nproc=8
%mem=16000MB
#p B2PLYPD3/Def2QZVP 

cyanomethane

0 1
C  -6.597131  -1.118471   1.176654
C  -5.201659  -0.790878   0.869232
N  -4.091021  -0.537255   0.720364
H  -6.758483  -1.199566   2.256269
H  -6.902739  -2.003427   0.705396
H  -7.241482  -0.361719   0.805527
