%chk=/home/boittier/MDCM/nms_sampling/cyanomethane_geom.xyz.dir/cyanomethane_897.chk
%nproc=8
%mem=16000MB
#p B2PLYPD3/Def2QZVP 

cyanomethane

0 1
C  -6.590488  -1.108118   1.166829
C  -5.202054  -0.806098   0.909431
N  -4.097355  -0.530085   0.700624
H  -6.751392  -1.219596   2.222963
H  -6.887106  -2.048504   0.680106
H  -7.250981  -0.322647   0.788963
