%chk=/home/boittier/MDCM/nms_sampling/cyanomethane_geom.xyz.dir/cyanomethane_28.chk
%nproc=8
%mem=16000MB
#p B2PLYPD3/Def2QZVP 

cyanomethane

0 1
C  -6.589653  -1.109669   1.163307
C  -5.201715  -0.788332   0.924814
N  -4.097822  -0.539178   0.691782
H  -6.726588  -1.264416   2.234213
H  -6.894760  -2.064779   0.640213
H  -7.275736  -0.316535   0.795389
