%chk=/home/boittier/MDCM/nms_sampling/cyanomethane_geom.xyz.dir/cyanomethane_3300.chk
%nproc=8
%mem=16000MB
#p B2PLYPD3/Def2QZVP 

cyanomethane

0 1
C  -6.588839  -1.107185   1.183424
C  -5.213182  -0.804292   0.834494
N  -4.103337  -0.530299   0.738093
H  -6.677317  -1.284878   2.262813
H  -6.856502  -2.102884   0.709697
H  -7.152621  -0.247781   0.888881

