%chk=/home/boittier/MDCM/nms_sampling/cyanomethane_geom.xyz.dir/cyanomethane_504.chk
%nproc=8
%mem=16000MB
#p B2PLYPD3/Def2QZVP 

cyanomethane

0 1
C  -6.597854  -1.120330   1.167674
C  -5.200845  -0.793258   0.889269
N  -4.089314  -0.534649   0.712397
H  -6.811725  -1.206201   2.228289
H  -6.903594  -2.006072   0.703226
H  -7.211574  -0.329009   0.819964

