%chk=/home/boittier/MDCM/nms_sampling/cyanomethane_geom.xyz.dir/cyanomethane_83.chk
%nproc=8
%mem=16000MB
#p B2PLYPD3/Def2QZVP 

cyanomethane

0 1
C  -6.587232  -1.120360   1.169854
C  -5.202155  -0.775734   0.908400
N  -4.098981  -0.546424   0.700609
H  -6.758516  -1.203236   2.214502
H  -6.859052  -2.043577   0.678500
H  -7.287245  -0.335834   0.766310
