%chk=/home/boittier/MDCM/nms_sampling/cyanomethane_geom.xyz.dir/cyanomethane_1856.chk
%nproc=8
%mem=16000MB
#p B2PLYPD3/Def2QZVP 

cyanomethane

0 1
C  -6.615037  -1.129261   1.171571
C  -5.199449  -0.744818   0.900585
N  -4.084867  -0.561289   0.706003
H  -6.760408  -1.230138   2.279832
H  -6.814619  -2.104427   0.636798
H  -7.224435  -0.301917   0.742739
