%chk=/home/boittier/MDCM/nms_sampling/cyanomethane_geom.xyz.dir/cyanomethane_2224.chk
%nproc=8
%mem=16000MB
#p B2PLYPD3/Def2QZVP 

cyanomethane

0 1
C  -6.595712  -1.130637   1.154582
C  -5.200483  -0.766925   0.924608
N  -4.096308  -0.547636   0.692463
H  -6.733218  -1.217734   2.227923
H  -6.895209  -1.971897   0.689741
H  -7.231729  -0.349330   0.832728
