%chk=/home/boittier/MDCM/nms_sampling/cyanomethane_geom.xyz.dir/cyanomethane_885.chk
%nproc=8
%mem=16000MB
#p B2PLYPD3/Def2QZVP 

cyanomethane

0 1
C  -6.591952  -1.106945   1.164828
C  -5.203000  -0.805789   0.915036
N  -4.094597  -0.530399   0.699959
H  -6.804974  -1.236084   2.249700
H  -6.856193  -2.040168   0.637558
H  -7.239524  -0.322110   0.778098

