%chk=/home/boittier/MDCM/nms_sampling/cyanomethane_geom.xyz.dir/cyanomethane_1147.chk
%nproc=8
%mem=16000MB
#p B2PLYPD3/Def2QZVP 

cyanomethane

0 1
C  -6.598961  -1.108044   1.166804
C  -5.200716  -0.790277   0.924212
N  -4.095967  -0.539390   0.692497
H  -6.716387  -1.239845   2.215501
H  -6.842585  -2.088625   0.651316
H  -7.263978  -0.315353   0.762084

