%chk=/home/boittier/MDCM/nms_sampling/cyanomethane_geom.xyz.dir/cyanomethane_3416.chk
%nproc=8
%mem=16000MB
#p B2PLYPD3/Def2QZVP 

cyanomethane

0 1
C  -6.585656  -1.114037   1.161836
C  -5.204036  -0.773837   0.921712
N  -4.088714  -0.554301   0.695495
H  -6.823789  -1.196796   2.215158
H  -6.748215  -2.045063   0.686271
H  -7.474399  -0.334092   0.766012
