%chk=/home/boittier/MDCM/nms_sampling/cyanomethane_geom.xyz.dir/cyanomethane_1077.chk
%nproc=8
%mem=16000MB
#p B2PLYPD3/Def2QZVP 

cyanomethane

0 1
C  -6.592438  -1.120084   1.168856
C  -5.203503  -0.789659   0.899105
N  -4.095238  -0.537046   0.708046
H  -6.807175  -1.214283   2.266283
H  -6.865134  -2.034502   0.646890
H  -7.206547  -0.299796   0.778429

