%chk=/home/boittier/MDCM/nms_sampling/cyanomethane_geom.xyz.dir/cyanomethane_1076.chk
%nproc=8
%mem=16000MB
#p B2PLYPD3/Def2QZVP 

cyanomethane

0 1
C  -6.593464  -1.119158   1.161975
C  -5.201500  -0.774162   0.903727
N  -4.096002  -0.545763   0.704540
H  -6.778493  -1.231135   2.241766
H  -6.868130  -2.031492   0.695382
H  -7.232536  -0.359741   0.811610
