%chk=/home/boittier/MDCM/nms_sampling/cyanomethane_geom.xyz.dir/cyanomethane_2665.chk
%nproc=8
%mem=16000MB
#p B2PLYPD3/Def2QZVP 

cyanomethane

0 1
C  -6.611998  -1.138214   1.166856
C  -5.197126  -0.787805   0.848632
N  -4.089798  -0.536437   0.733899
H  -6.784334  -1.176766   2.212766
H  -6.848214  -1.951644   0.791911
H  -7.157837  -0.258890   0.930379
