%chk=/home/boittier/MDCM/nms_sampling/cyanomethane_geom.xyz.dir/cyanomethane_2388.chk
%nproc=8
%mem=16000MB
#p B2PLYPD3/Def2QZVP 

cyanomethane

0 1
C  -6.600345  -1.132660   1.166338
C  -5.206053  -0.760288   0.889006
N  -4.094852  -0.552478   0.711860
H  -6.738388  -1.175413   2.264878
H  -6.824855  -2.046996   0.721979
H  -7.193530  -0.324908   0.783611
