%chk=/home/boittier/MDCM/nms_sampling/cyanomethane_geom.xyz.dir/cyanomethane_1629.chk
%nproc=8
%mem=16000MB
#p B2PLYPD3/Def2QZVP 

cyanomethane

0 1
C  -6.613236  -1.117004   1.175791
C  -5.199509  -0.833799   0.906646
N  -4.086486  -0.514104   0.700817
H  -6.695135  -1.129817   2.229716
H  -6.896606  -1.996880   0.664151
H  -7.207308  -0.260635   0.739586
