%chk=/home/boittier/MDCM/nms_sampling/cyanomethane_geom.xyz.dir/cyanomethane_1932.chk
%nproc=8
%mem=16000MB
#p B2PLYPD3/Def2QZVP 

cyanomethane

0 1
C  -6.593631  -1.112320   1.158776
C  -5.199907  -0.762723   0.912385
N  -4.095904  -0.553514   0.701882
H  -6.826077  -1.303864   2.248442
H  -6.811571  -2.034902   0.640172
H  -7.261206  -0.380121   0.830866

