%chk=/home/boittier/MDCM/nms_sampling/cyanomethane_geom.xyz.dir/cyanomethane_1633.chk
%nproc=8
%mem=16000MB
#p B2PLYPD3/Def2QZVP 

cyanomethane

0 1
C  -6.605934  -1.120167   1.172606
C  -5.201458  -0.760500   0.898553
N  -4.088610  -0.553287   0.702646
H  -6.673007  -1.250248   2.185117
H  -6.892232  -2.058796   0.700711
H  -7.264897  -0.358560   0.813007

