%chk=/home/boittier/MDCM/nms_sampling/cyanomethane_geom.xyz.dir/cyanomethane_3026.chk
%nproc=8
%mem=16000MB
#p B2PLYPD3/Def2QZVP 

cyanomethane

0 1
C  -6.623075  -1.099237   1.142672
C  -5.192312  -0.869108   0.941149
N  -4.082883  -0.498373   0.689686
H  -6.794290  -1.129049   2.287309
H  -6.813748  -1.976428   0.708481
H  -7.213003  -0.287527   0.785767
