%chk=/home/boittier/MDCM/nms_sampling/cyanomethane_geom.xyz.dir/cyanomethane_3229.chk
%nproc=8
%mem=16000MB
#p B2PLYPD3/Def2QZVP 

cyanomethane

0 1
C  -6.622256  -1.119818   1.147758
C  -5.193641  -0.736934   0.918971
N  -4.084318  -0.568396   0.697925
H  -6.775265  -1.307798   2.154690
H  -6.733653  -2.015424   0.737012
H  -7.279091  -0.408973   0.908660
