%chk=/home/boittier/MDCM/nms_sampling/cyanomethane_geom.xyz.dir/cyanomethane_808.chk
%nproc=8
%mem=16000MB
#p B2PLYPD3/Def2QZVP 

cyanomethane

0 1
C  -6.604642  -1.114386   1.159430
C  -5.201178  -0.804397   0.911078
N  -4.089991  -0.530384   0.701872
H  -6.771690  -1.197262   2.251527
H  -6.847895  -2.026747   0.693887
H  -7.213501  -0.311523   0.799367

