%chk=/home/boittier/MDCM/nms_sampling/cyanomethane_geom.xyz.dir/cyanomethane_3590.chk
%nproc=8
%mem=16000MB
#p B2PLYPD3/Def2QZVP 

cyanomethane

0 1
C  -6.585703  -1.123797   1.171644
C  -5.207128  -0.727887   0.903703
N  -4.091974  -0.567249   0.700172
H  -6.728103  -1.327041   2.283856
H  -6.980779  -2.059871   0.601002
H  -7.252532  -0.414446   0.794069
