%chk=/home/boittier/MDCM/nms_sampling/cyanomethane_geom.xyz.dir/cyanomethane_1845.chk
%nproc=8
%mem=16000MB
#p B2PLYPD3/Def2QZVP 

cyanomethane

0 1
C  -6.596134  -1.115600   1.168904
C  -5.202073  -0.788222   0.871923
N  -4.100828  -0.536981   0.722307
H  -6.785722  -1.250748   2.240534
H  -6.854362  -2.053550   0.712193
H  -7.130180  -0.320462   0.851047

