%chk=/home/boittier/MDCM/nms_sampling/cyanomethane_geom.xyz.dir/cyanomethane_310.chk
%nproc=8
%mem=16000MB
#p B2PLYPD3/Def2QZVP 

cyanomethane

0 1
C  -6.589211  -1.119671   1.172642
C  -5.204205  -0.786472   0.900906
N  -4.096215  -0.540542   0.703521
H  -6.730771  -1.207700   2.219828
H  -6.876468  -2.031255   0.671764
H  -7.287109  -0.306776   0.786416
