%chk=/home/boittier/MDCM/nms_sampling/cyanomethane_geom.xyz.dir/cyanomethane_303.chk
%nproc=8
%mem=16000MB
#p B2PLYPD3/Def2QZVP 

cyanomethane

0 1
C  -6.590498  -1.116835   1.160029
C  -5.204236  -0.768793   0.911241
N  -4.096257  -0.549725   0.701987
H  -6.801610  -1.250135   2.265739
H  -6.828681  -2.066246   0.663917
H  -7.248722  -0.338294   0.794530

