%chk=/home/boittier/MDCM/nms_sampling/cyanomethane_geom.xyz.dir/cyanomethane_1597.chk
%nproc=8
%mem=16000MB
#p B2PLYPD3/Def2QZVP 

cyanomethane

0 1
C  -6.596279  -1.125869   1.175516
C  -5.199205  -0.749119   0.902089
N  -4.092127  -0.559837   0.703836
H  -6.776968  -1.242924   2.261570
H  -6.857667  -2.073683   0.615930
H  -7.293011  -0.325832   0.744813
