%chk=/home/boittier/MDCM/nms_sampling/cyanomethane_geom.xyz.dir/cyanomethane_1360.chk
%nproc=8
%mem=16000MB
#p B2PLYPD3/Def2QZVP 

cyanomethane

0 1
C  -6.583580  -1.119212   1.174836
C  -5.205168  -0.793273   0.933492
N  -4.099366  -0.535944   0.684590
H  -6.680552  -1.172015   2.227090
H  -6.932366  -2.044704   0.618860
H  -7.296067  -0.309309   0.692377
