%chk=/home/boittier/MDCM/nms_sampling/cyanomethane_geom.xyz.dir/cyanomethane_1983.chk
%nproc=8
%mem=16000MB
#p B2PLYPD3/Def2QZVP 

cyanomethane

0 1
C  -6.612679  -1.104230   1.170241
C  -5.198095  -0.777676   0.905967
N  -4.086395  -0.547443   0.702844
H  -6.754019  -1.301934   2.213363
H  -6.792648  -2.065148   0.631028
H  -7.276478  -0.357242   0.807472

