%chk=/home/boittier/MDCM/nms_sampling/cyanomethane_geom.xyz.dir/cyanomethane_3378.chk
%nproc=8
%mem=16000MB
#p B2PLYPD3/Def2QZVP 

cyanomethane

0 1
C  -6.627190  -1.125134   1.164318
C  -5.199186  -0.833575   0.913769
N  -4.078977  -0.508203   0.703145
H  -6.808109  -1.171616   2.282640
H  -6.909864  -1.986555   0.609567
H  -7.021777  -0.200946   0.775821

