%chk=/home/boittier/MDCM/nms_sampling/cyanomethane_geom.xyz.dir/cyanomethane_797.chk
%nproc=8
%mem=16000MB
#p B2PLYPD3/Def2QZVP 

cyanomethane

0 1
C  -6.597111  -1.121441   1.164424
C  -5.202223  -0.772961   0.902425
N  -4.091450  -0.545661   0.705160
H  -6.783099  -1.249183   2.235652
H  -6.878922  -2.039768   0.671975
H  -7.227036  -0.317964   0.822742
