%chk=/home/boittier/MDCM/nms_sampling/cyanomethane_geom.xyz.dir/cyanomethane_530.chk
%nproc=8
%mem=16000MB
#p B2PLYPD3/Def2QZVP 

cyanomethane

0 1
C  -6.591380  -1.120183   1.169846
C  -5.203209  -0.773005   0.899409
N  -4.093118  -0.546316   0.707413
H  -6.818344  -1.222568   2.242257
H  -6.871434  -2.075780   0.667372
H  -7.233824  -0.319091   0.767640
