%chk=/home/boittier/MDCM/nms_sampling/cyanomethane_geom.xyz.dir/cyanomethane_3067.chk
%nproc=8
%mem=16000MB
#p B2PLYPD3/Def2QZVP 

cyanomethane

0 1
C  -6.600835  -1.095616   1.168677
C  -5.211384  -0.753377   0.909262
N  -4.096763  -0.561785   0.701309
H  -6.708944  -1.414352   2.195301
H  -6.697768  -2.095970   0.589429
H  -7.253351  -0.389340   0.855805

