%chk=/home/boittier/MDCM/nms_sampling/cyanomethane_geom.xyz.dir/cyanomethane_2631.chk
%nproc=8
%mem=16000MB
#p B2PLYPD3/Def2QZVP 

cyanomethane

0 1
C  -6.600054  -1.121011   1.174622
C  -5.191426  -0.731570   0.904522
N  -4.087560  -0.567161   0.698288
H  -6.710111  -1.354178   2.309230
H  -6.988874  -2.067915   0.555147
H  -7.340561  -0.367065   0.801477
