%chk=/home/boittier/MDCM/nms_sampling/cyanomethane_geom.xyz.dir/cyanomethane_518.chk
%nproc=8
%mem=16000MB
#p B2PLYPD3/Def2QZVP 

cyanomethane

0 1
C  -6.590805  -1.103447   1.170493
C  -5.202722  -0.804419   0.889398
N  -4.098727  -0.531523   0.712004
H  -6.772642  -1.264682   2.259875
H  -6.855632  -2.044891   0.653549
H  -7.230704  -0.336294   0.815050

