%chk=/home/boittier/MDCM/nms_sampling/cyanomethane_geom.xyz.dir/cyanomethane_803.chk
%nproc=8
%mem=16000MB
#p B2PLYPD3/Def2QZVP 

cyanomethane

0 1
C  -6.593148  -1.123383   1.163641
C  -5.201099  -0.766918   0.901153
N  -4.097131  -0.548164   0.705990
H  -6.780595  -1.249992   2.268279
H  -6.883057  -2.042522   0.662207
H  -7.208096  -0.328494   0.812570
