%chk=/home/boittier/MDCM/nms_sampling/cyanomethane_geom.xyz.dir/cyanomethane_1023.chk
%nproc=8
%mem=16000MB
#p B2PLYPD3/Def2QZVP 

cyanomethane

0 1
C  -6.588641  -1.114189   1.166179
C  -5.205023  -0.780113   0.902847
N  -4.096360  -0.545271   0.703937
H  -6.754054  -1.244282   2.230179
H  -6.835242  -2.042962   0.677062
H  -7.300267  -0.330317   0.813832

