%chk=/home/boittier/MDCM/nms_sampling/cyanomethane_geom.xyz.dir/cyanomethane_2391.chk
%nproc=8
%mem=16000MB
#p B2PLYPD3/Def2QZVP 

cyanomethane

0 1
C  -6.595637  -1.100502   1.164387
C  -5.201363  -0.821115   0.912079
N  -4.099427  -0.523706   0.697855
H  -6.680690  -1.228327   2.190111
H  -6.862733  -2.038045   0.708890
H  -7.262494  -0.324919   0.825325

