%chk=/home/boittier/MDCM/nms_sampling/cyanomethane_geom.xyz.dir/cyanomethane_2309.chk
%nproc=8
%mem=16000MB
#p B2PLYPD3/Def2QZVP 

cyanomethane

0 1
C  -6.597173  -1.109558   1.174397
C  -5.200980  -0.792543   0.936185
N  -4.092368  -0.536581   0.685212
H  -6.725060  -1.223481   2.224641
H  -6.906878  -2.085412   0.590914
H  -7.261577  -0.322954   0.691034

