%chk=/home/boittier/MDCM/nms_sampling/cyanomethane_geom.xyz.dir/cyanomethane_256.chk
%nproc=8
%mem=16000MB
#p B2PLYPD3/Def2QZVP 

cyanomethane

0 1
C  -6.606850  -1.112830   1.169120
C  -5.197601  -0.802846   0.906427
N  -4.090682  -0.530386   0.700230
H  -6.693959  -1.215556   2.205310
H  -6.915936  -2.039921   0.692816
H  -7.227985  -0.314320   0.802732

