%chk=/home/boittier/MDCM/nms_sampling/cyanomethane_geom.xyz.dir/cyanomethane_417.chk
%nproc=8
%mem=16000MB
#p B2PLYPD3/Def2QZVP 

cyanomethane

0 1
C  -6.596569  -1.113624   1.159713
C  -5.203569  -0.781601   0.911661
N  -4.095677  -0.542759   0.701655
H  -6.776868  -1.273383   2.231114
H  -6.818922  -2.053293   0.662182
H  -7.224742  -0.305589   0.836467

