%chk=/home/boittier/MDCM/nms_sampling/cyanomethane_geom.xyz.dir/cyanomethane_2534.chk
%nproc=8
%mem=16000MB
#p B2PLYPD3/Def2QZVP 

cyanomethane

0 1
C  -6.579220  -1.070991   1.175609
C  -5.203312  -0.880324   0.921921
N  -4.105059  -0.493987   0.697105
H  -6.808514  -1.219133   2.291565
H  -6.875901  -2.098373   0.572753
H  -7.224004  -0.326609   0.669160

