%chk=/home/boittier/MDCM/nms_sampling/cyanomethane_geom.xyz.dir/cyanomethane_103.chk
%nproc=8
%mem=16000MB
#p B2PLYPD3/Def2QZVP 

cyanomethane

0 1
C  -6.601607  -1.118165   1.169884
C  -5.198474  -0.787038   0.923879
N  -4.090447  -0.539557   0.691310
H  -6.720108  -1.200991   2.189283
H  -6.896261  -2.041832   0.663654
H  -7.278627  -0.320316   0.755533
