%chk=/home/boittier/MDCM/nms_sampling/cyanomethane_geom.xyz.dir/cyanomethane_1299.chk
%nproc=8
%mem=16000MB
#p B2PLYPD3/Def2QZVP 

cyanomethane

0 1
C  -6.605270  -1.117090   1.168202
C  -5.197202  -0.813002   0.917033
N  -4.092752  -0.521561   0.696308
H  -6.727313  -1.237326   2.228164
H  -6.954656  -2.003002   0.618331
H  -7.151743  -0.266675   0.807747
