%chk=/home/boittier/MDCM/nms_sampling/cyanomethane_geom.xyz.dir/cyanomethane_1871.chk
%nproc=8
%mem=16000MB
#p B2PLYPD3/Def2QZVP 

cyanomethane

0 1
C  -6.585824  -1.099554   1.177509
C  -5.205185  -0.800515   0.871327
N  -4.094732  -0.534470   0.722276
H  -6.840515  -1.308818   2.234460
H  -6.848629  -2.054911   0.639216
H  -7.254711  -0.332507   0.842291
