%chk=/home/boittier/MDCM/nms_sampling/cyanomethane_geom.xyz.dir/cyanomethane_1109.chk
%nproc=8
%mem=16000MB
#p B2PLYPD3/Def2QZVP 

cyanomethane

0 1
C  -6.606400  -1.112889   1.166610
C  -5.200699  -0.783978   0.906330
N  -4.088455  -0.542988   0.701071
H  -6.710345  -1.248242   2.210956
H  -6.839475  -2.047260   0.681691
H  -7.287547  -0.321488   0.820942
