%chk=/home/boittier/MDCM/nms_sampling/cyanomethane_geom.xyz.dir/cyanomethane_1297.chk
%nproc=8
%mem=16000MB
#p B2PLYPD3/Def2QZVP 

cyanomethane

0 1
C  -6.584120  -1.107797   1.162085
C  -5.203723  -0.821671   0.909945
N  -4.101513  -0.522804   0.704320
H  -6.839076  -1.178311   2.224704
H  -6.822852  -2.016820   0.695944
H  -7.227650  -0.321065   0.779958

