%chk=/home/boittier/MDCM/nms_sampling/cyanomethane_geom.xyz.dir/cyanomethane_1284.chk
%nproc=8
%mem=16000MB
#p B2PLYPD3/Def2QZVP 

cyanomethane

0 1
C  -6.606007  -1.106624   1.172425
C  -5.199715  -0.815095   0.892526
N  -4.095305  -0.527950   0.710578
H  -6.740692  -1.205184   2.240772
H  -6.775933  -2.031040   0.668889
H  -7.243796  -0.303682   0.785706

