%chk=/home/boittier/MDCM/nms_sampling/cyanomethane_geom.xyz.dir/cyanomethane_2103.chk
%nproc=8
%mem=16000MB
#p B2PLYPD3/Def2QZVP 

cyanomethane

0 1
C  -6.585190  -1.129706   1.160060
C  -5.206261  -0.777042   0.931791
N  -4.097424  -0.542927   0.689533
H  -6.769272  -1.140590   2.234644
H  -6.898155  -2.013447   0.693039
H  -7.236089  -0.350122   0.726893

