%chk=/home/boittier/MDCM/nms_sampling/cyanomethane_geom.xyz.dir/cyanomethane_2351.chk
%nproc=8
%mem=16000MB
#p B2PLYPD3/Def2QZVP 

cyanomethane

0 1
C  -6.611480  -1.101823   1.157447
C  -5.198672  -0.833526   0.919360
N  -4.084893  -0.513127   0.698623
H  -6.791137  -1.254502   2.230105
H  -6.904920  -2.048704   0.660741
H  -7.154474  -0.259954   0.837723

