%chk=/home/boittier/MDCM/nms_sampling/cyanomethane_geom.xyz.dir/cyanomethane_904.chk
%nproc=8
%mem=16000MB
#p B2PLYPD3/Def2QZVP 

cyanomethane

0 1
C  -6.603906  -1.119281   1.162541
C  -5.201977  -0.792286   0.921001
N  -4.091254  -0.535381   0.693942
H  -6.710537  -1.216802   2.212019
H  -6.885929  -2.002758   0.672555
H  -7.217453  -0.323511   0.806584

