%chk=/home/boittier/MDCM/nms_sampling/cyanomethane_geom.xyz.dir/cyanomethane_2140.chk
%nproc=8
%mem=16000MB
#p B2PLYPD3/Def2QZVP 

cyanomethane

0 1
C  -6.612887  -1.119772   1.166157
C  -5.196282  -0.788225   0.941385
N  -4.088831  -0.537465   0.684689
H  -6.741508  -1.203156   2.203850
H  -6.862614  -2.061161   0.620711
H  -7.204853  -0.285779   0.724806
