%chk=/home/boittier/MDCM/nms_sampling/cyanomethane_geom.xyz.dir/cyanomethane_1784.chk
%nproc=8
%mem=16000MB
#p B2PLYPD3/Def2QZVP 

cyanomethane

0 1
C  -6.602755  -1.118267   1.154579
C  -5.194962  -0.769304   0.909067
N  -4.088970  -0.551380   0.703236
H  -6.817076  -1.217317   2.249730
H  -6.813112  -2.056142   0.725838
H  -7.314093  -0.345439   0.815071
