%chk=/home/boittier/MDCM/nms_sampling/cyanomethane_geom.xyz.dir/cyanomethane_2567.chk
%nproc=8
%mem=16000MB
#p B2PLYPD3/Def2QZVP 

cyanomethane

0 1
C  -6.570580  -1.109199   1.149581
C  -5.209495  -0.807475   0.985567
N  -4.104803  -0.527661   0.667406
H  -6.891047  -1.210747   2.231190
H  -6.845900  -2.013642   0.557925
H  -7.204867  -0.340180   0.687170
