%chk=/home/boittier/MDCM/nms_sampling/cyanomethane_geom.xyz.dir/cyanomethane_3098.chk
%nproc=8
%mem=16000MB
#p B2PLYPD3/Def2QZVP 

cyanomethane

0 1
C  -6.596024  -1.101451   1.194945
C  -5.211197  -0.800303   0.831480
N  -4.097574  -0.534238   0.742815
H  -6.789200  -1.321279   2.206956
H  -6.768638  -2.106474   0.641927
H  -7.147420  -0.260501   0.854316

