%chk=/home/boittier/MDCM/nms_sampling/cyanomethane_geom.xyz.dir/cyanomethane_2326.chk
%nproc=8
%mem=16000MB
#p B2PLYPD3/Def2QZVP 

cyanomethane

0 1
C  -6.602417  -1.114364   1.162696
C  -5.199196  -0.808230   0.890124
N  -4.086428  -0.530486   0.715150
H  -6.869855  -1.177401   2.277788
H  -6.806490  -2.003775   0.699184
H  -7.258554  -0.318860   0.797599
