%chk=/home/boittier/MDCM/nms_sampling/cyanomethane_geom.xyz.dir/cyanomethane_1552.chk
%nproc=8
%mem=16000MB
#p B2PLYPD3/Def2QZVP 

cyanomethane

0 1
C  -6.614888  -1.123982   1.166178
C  -5.198429  -0.776377   0.936576
N  -4.084978  -0.542432   0.687023
H  -6.747717  -1.215782   2.204970
H  -6.880321  -2.046388   0.622340
H  -7.184533  -0.308381   0.739389

