%chk=/home/boittier/MDCM/nms_sampling/cyanomethane_geom.xyz.dir/cyanomethane_422.chk
%nproc=8
%mem=16000MB
#p B2PLYPD3/Def2QZVP 

cyanomethane

0 1
C  -6.602440  -1.111157   1.170413
C  -5.201873  -0.784423   0.903548
N  -4.091649  -0.542193   0.704524
H  -6.760467  -1.239198   2.231944
H  -6.826514  -2.093619   0.661358
H  -7.239948  -0.311409   0.771039
