%chk=/home/boittier/MDCM/nms_sampling/cyanomethane_geom.xyz.dir/cyanomethane_3477.chk
%nproc=8
%mem=16000MB
#p B2PLYPD3/Def2QZVP 

cyanomethane

0 1
C  -6.588738  -1.117589   1.191636
C  -5.199906  -0.839966   0.876869
N  -4.098029  -0.512180   0.713841
H  -6.702373  -1.104955   2.279257
H  -6.942388  -1.960703   0.634452
H  -7.285429  -0.280640   0.707078
