%chk=/home/boittier/MDCM/nms_sampling/cyanomethane_geom.xyz.dir/cyanomethane_2254.chk
%nproc=8
%mem=16000MB
#p B2PLYPD3/Def2QZVP 

cyanomethane

0 1
C  -6.584355  -1.123063   1.159269
C  -5.202434  -0.785383   0.945473
N  -4.101145  -0.539142   0.680444
H  -6.714429  -1.164836   2.208900
H  -6.923192  -2.021614   0.681065
H  -7.269518  -0.342424   0.737226
