%chk=/home/boittier/MDCM/nms_sampling/cyanomethane_geom.xyz.dir/cyanomethane_3461.chk
%nproc=8
%mem=16000MB
#p B2PLYPD3/Def2QZVP 

cyanomethane

0 1
C  -6.585701  -1.107717   1.154057
C  -5.212219  -0.740393   0.895615
N  -4.102519  -0.571157   0.706454
H  -6.662148  -1.322268   2.233559
H  -6.707364  -2.101308   0.750530
H  -7.380508  -0.386675   0.900611
