%chk=/home/boittier/MDCM/nms_sampling/cyanomethane_geom.xyz.dir/cyanomethane_682.chk
%nproc=8
%mem=16000MB
#p B2PLYPD3/Def2QZVP 

cyanomethane

0 1
C  -6.602248  -1.113913   1.170125
C  -5.199351  -0.813228   0.905094
N  -4.092573  -0.524489   0.701885
H  -6.718514  -1.211620   2.213052
H  -6.913155  -2.016657   0.669986
H  -7.214631  -0.285779   0.806787

