%chk=/home/boittier/MDCM/nms_sampling/cyanomethane_geom.xyz.dir/cyanomethane_3103.chk
%nproc=8
%mem=16000MB
#p B2PLYPD3/Def2QZVP 

cyanomethane

0 1
C  -6.613288  -1.118804   1.158405
C  -5.192958  -0.807895   0.861846
N  -4.085728  -0.531507   0.734431
H  -6.962110  -1.163030   2.331430
H  -6.711902  -1.982161   0.729795
H  -7.215371  -0.305303   0.835851

