%chk=/home/boittier/MDCM/nms_sampling/cyanomethane_geom.xyz.dir/cyanomethane_2545.chk
%nproc=8
%mem=16000MB
#p B2PLYPD3/Def2QZVP 

cyanomethane

0 1
C  -6.615857  -1.119849   1.194916
C  -5.195255  -0.744335   0.905063
N  -4.088092  -0.564219   0.699279
H  -6.693909  -1.261706   2.192695
H  -6.803653  -2.105054   0.552961
H  -7.298212  -0.336921   0.676721
