%chk=/home/boittier/MDCM/nms_sampling/cyanomethane_geom.xyz.dir/cyanomethane_3210.chk
%nproc=8
%mem=16000MB
#p B2PLYPD3/Def2QZVP 

cyanomethane

0 1
C  -6.593990  -1.128384   1.157407
C  -5.203497  -0.824082   0.925277
N  -4.104903  -0.516456   0.695877
H  -6.773820  -1.070451   2.166345
H  -6.856289  -1.984694   0.767481
H  -7.093902  -0.282280   0.757479
