%chk=/home/boittier/MDCM/nms_sampling/cyanomethane_geom.xyz.dir/cyanomethane_1358.chk
%nproc=8
%mem=16000MB
#p B2PLYPD3/Def2QZVP 

cyanomethane

0 1
C  -6.612415  -1.120516   1.165642
C  -5.199444  -0.764592   0.905267
N  -4.085120  -0.555377   0.703412
H  -6.751306  -1.205714   2.205641
H  -6.752374  -2.077834   0.711928
H  -7.322904  -0.311728   0.786267
