%chk=/home/boittier/MDCM/nms_sampling/cyanomethane_geom.xyz.dir/cyanomethane_418.chk
%nproc=8
%mem=16000MB
#p B2PLYPD3/Def2QZVP 

cyanomethane

0 1
C  -6.600616  -1.107252   1.169205
C  -5.198332  -0.801960   0.883543
N  -4.091997  -0.533145   0.714542
H  -6.770765  -1.236884   2.257340
H  -6.862306  -2.027668   0.691674
H  -7.254419  -0.350755   0.823013
