%chk=/home/boittier/MDCM/nms_sampling/cyanomethane_geom.xyz.dir/cyanomethane_2419.chk
%nproc=8
%mem=16000MB
#p B2PLYPD3/Def2QZVP 

cyanomethane

0 1
C  -6.604251  -1.126592   1.187478
C  -5.200206  -0.755327   0.874303
N  -4.086456  -0.558728   0.714599
H  -6.686154  -1.193959   2.249637
H  -6.860509  -2.136162   0.678832
H  -7.349010  -0.266483   0.732531

