%chk=/home/boittier/MDCM/nms_sampling/cyanomethane_geom.xyz.dir/cyanomethane_3260.chk
%nproc=8
%mem=16000MB
#p B2PLYPD3/Def2QZVP 

cyanomethane

0 1
C  -6.627470  -1.104673   1.164099
C  -5.196224  -0.754813   0.875835
N  -4.081509  -0.563750   0.717597
H  -6.707509  -1.312113   2.206704
H  -6.683209  -2.018635   0.738324
H  -7.344207  -0.451474   0.900406

