%chk=/home/boittier/MDCM/nms_sampling/cyanomethane_geom.xyz.dir/cyanomethane_2357.chk
%nproc=8
%mem=16000MB
#p B2PLYPD3/Def2QZVP 

cyanomethane

0 1
C  -6.601270  -1.110575   1.158841
C  -5.194617  -0.830907   0.920280
N  -4.089280  -0.516770   0.696818
H  -6.800128  -1.167671   2.248071
H  -6.900750  -1.973094   0.682504
H  -7.263572  -0.313789   0.790143

