%chk=/home/boittier/MDCM/nms_sampling/cyanomethane_geom.xyz.dir/cyanomethane_2908.chk
%nproc=8
%mem=16000MB
#p B2PLYPD3/Def2QZVP 

cyanomethane

0 1
C  -6.598564  -1.133805   1.143581
C  -5.197527  -0.771359   0.969020
N  -4.082250  -0.545669   0.670824
H  -6.807997  -1.095508   2.234898
H  -6.950981  -2.007046   0.728526
H  -7.302063  -0.380220   0.699985

