%chk=/home/boittier/MDCM/nms_sampling/cyanomethane_geom.xyz.dir/cyanomethane_554.chk
%nproc=8
%mem=16000MB
#p B2PLYPD3/Def2QZVP 

cyanomethane

0 1
C  -6.601195  -1.105978   1.165790
C  -5.197419  -0.814478   0.913184
N  -4.091000  -0.526710   0.699094
H  -6.760176  -1.197135   2.246472
H  -6.874290  -2.033720   0.673490
H  -7.272489  -0.335653   0.765558
