%chk=/home/boittier/MDCM/nms_sampling/cyanomethane_geom.xyz.dir/cyanomethane_3444.chk
%nproc=8
%mem=16000MB
#p B2PLYPD3/Def2QZVP 

cyanomethane

0 1
C  -6.603096  -1.098917   1.144589
C  -5.191793  -0.798618   0.977688
N  -4.084551  -0.537218   0.661881
H  -6.682335  -1.274543   2.127583
H  -6.919204  -2.005692   0.689618
H  -7.438782  -0.385053   0.843549

