%chk=/home/boittier/MDCM/nms_sampling/cyanomethane_geom.xyz.dir/cyanomethane_891.chk
%nproc=8
%mem=16000MB
#p B2PLYPD3/Def2QZVP 

cyanomethane

0 1
C  -6.605309  -1.111966   1.161639
C  -5.198297  -0.795408   0.932011
N  -4.089775  -0.535691   0.690152
H  -6.765958  -1.224047   2.201135
H  -6.847883  -2.050687   0.656790
H  -7.248612  -0.310890   0.774302
