%chk=/home/boittier/MDCM/nms_sampling/cyanomethane_geom.xyz.dir/cyanomethane_2469.chk
%nproc=8
%mem=16000MB
#p B2PLYPD3/Def2QZVP 

cyanomethane

0 1
C  -6.615616  -1.121797   1.155569
C  -5.200463  -0.843760   0.916677
N  -4.084322  -0.506541   0.700959
H  -6.795853  -1.042236   2.241884
H  -6.890654  -1.988428   0.776421
H  -7.103261  -0.298110   0.734783

