%chk=/home/boittier/MDCM/nms_sampling/cyanomethane_geom.xyz.dir/cyanomethane_2864.chk
%nproc=8
%mem=16000MB
#p B2PLYPD3/Def2QZVP 

cyanomethane

0 1
C  -6.612402  -1.133670   1.166704
C  -5.196658  -0.737797   0.901106
N  -4.092325  -0.562185   0.706893
H  -6.774968  -1.245044   2.236870
H  -6.837255  -2.139826   0.676724
H  -7.144902  -0.266521   0.781758
