%chk=/home/boittier/MDCM/nms_sampling/cyanomethane_geom.xyz.dir/cyanomethane_920.chk
%nproc=8
%mem=16000MB
#p B2PLYPD3/Def2QZVP 

cyanomethane

0 1
C  -6.599441  -1.122555   1.165980
C  -5.201774  -0.768269   0.904244
N  -4.096648  -0.548873   0.704483
H  -6.758969  -1.217167   2.247968
H  -6.829993  -2.066695   0.678956
H  -7.205678  -0.326495   0.775260

