%chk=/home/boittier/MDCM/nms_sampling/cyanomethane_geom.xyz.dir/cyanomethane_1497.chk
%nproc=8
%mem=16000MB
#p B2PLYPD3/Def2QZVP 

cyanomethane

0 1
C  -6.596272  -1.106443   1.172899
C  -5.200985  -0.798949   0.877255
N  -4.092403  -0.538529   0.717954
H  -6.777157  -1.192610   2.281579
H  -6.792398  -2.058369   0.705427
H  -7.333952  -0.348553   0.772057

