%chk=/home/boittier/MDCM/nms_sampling/cyanomethane_geom.xyz.dir/cyanomethane_2121.chk
%nproc=8
%mem=16000MB
#p B2PLYPD3/Def2QZVP 

cyanomethane

0 1
C  -6.601154  -1.111795   1.158638
C  -5.201640  -0.822327   0.920356
N  -4.087591  -0.518815   0.697849
H  -6.811468  -1.221673   2.242770
H  -6.907187  -1.989775   0.648711
H  -7.184797  -0.290429   0.817475
