%chk=/home/boittier/MDCM/nms_sampling/cyanomethane_geom.xyz.dir/cyanomethane_670.chk
%nproc=8
%mem=16000MB
#p B2PLYPD3/Def2QZVP 

cyanomethane

0 1
C  -6.598368  -1.119261   1.161649
C  -5.204909  -0.788260   0.928905
N  -4.095430  -0.537583   0.691038
H  -6.723229  -1.204303   2.238707
H  -6.863988  -2.054420   0.657797
H  -7.200338  -0.301784   0.760089
