%chk=/home/boittier/MDCM/nms_sampling/cyanomethane_geom.xyz.dir/cyanomethane_1745.chk
%nproc=8
%mem=16000MB
#p B2PLYPD3/Def2QZVP 

cyanomethane

0 1
C  -6.583151  -1.127239   1.166418
C  -5.201823  -0.813910   0.900975
N  -4.099134  -0.523008   0.706452
H  -6.812208  -1.128235   2.226727
H  -6.927684  -1.978901   0.711723
H  -7.215827  -0.273931   0.784916

