%chk=/home/boittier/MDCM/nms_sampling/cyanomethane_geom.xyz.dir/cyanomethane_940.chk
%nproc=8
%mem=16000MB
#p B2PLYPD3/Def2QZVP 

cyanomethane

0 1
C  -6.598091  -1.113809   1.162399
C  -5.204015  -0.794921   0.895760
N  -4.094398  -0.535590   0.710157
H  -6.788154  -1.236350   2.218689
H  -6.824011  -2.029998   0.705750
H  -7.202151  -0.315459   0.844234
