%chk=/home/boittier/MDCM/nms_sampling/cyanomethane_geom.xyz.dir/cyanomethane_878.chk
%nproc=8
%mem=16000MB
#p B2PLYPD3/Def2QZVP 

cyanomethane

0 1
C  -6.598730  -1.107382   1.165197
C  -5.201088  -0.799798   0.923041
N  -4.089920  -0.534230   0.694576
H  -6.774212  -1.241435   2.248034
H  -6.857092  -2.056120   0.624836
H  -7.275998  -0.311359   0.766857
