%chk=/home/boittier/MDCM/nms_sampling/cyanomethane_geom.xyz.dir/cyanomethane_1278.chk
%nproc=8
%mem=16000MB
#p B2PLYPD3/Def2QZVP 

cyanomethane

0 1
C  -6.590412  -1.105895   1.170158
C  -5.203399  -0.782521   0.924137
N  -4.100874  -0.544140   0.692496
H  -6.723428  -1.265949   2.206770
H  -6.825371  -2.106003   0.627380
H  -7.276180  -0.319533   0.755162

