%chk=/home/boittier/MDCM/nms_sampling/cyanomethane_geom.xyz.dir/cyanomethane_369.chk
%nproc=8
%mem=16000MB
#p B2PLYPD3/Def2QZVP 

cyanomethane

0 1
C  -6.592611  -1.105965   1.163446
C  -5.202979  -0.793625   0.924879
N  -4.098224  -0.537263   0.692210
H  -6.716100  -1.269534   2.226891
H  -6.858613  -2.076663   0.640443
H  -7.265716  -0.307061   0.796920
