%chk=/home/boittier/MDCM/nms_sampling/cyanomethane_geom.xyz.dir/cyanomethane_100.chk
%nproc=8
%mem=16000MB
#p B2PLYPD3/Def2QZVP 

cyanomethane

0 1
C  -6.596423  -1.118867   1.168824
C  -5.203147  -0.799353   0.892570
N  -4.097587  -0.532588   0.711727
H  -6.787070  -1.197919   2.255508
H  -6.828831  -2.024363   0.672284
H  -7.186021  -0.292735   0.791638

