%chk=/home/boittier/MDCM/nms_sampling/cyanomethane_geom.xyz.dir/cyanomethane_2827.chk
%nproc=8
%mem=16000MB
#p B2PLYPD3/Def2QZVP 

cyanomethane

0 1
C  -6.572970  -1.118144   1.167976
C  -5.208742  -0.776138   0.942602
N  -4.102155  -0.542762   0.679692
H  -6.687342  -1.300568   2.264538
H  -6.977906  -1.991075   0.526976
H  -7.290242  -0.330003   0.778788

