%chk=/home/boittier/MDCM/nms_sampling/cyanomethane_geom.xyz.dir/cyanomethane_526.chk
%nproc=8
%mem=16000MB
#p B2PLYPD3/Def2QZVP 

cyanomethane

0 1
C  -6.596351  -1.113118   1.171929
C  -5.198629  -0.785414   0.887839
N  -4.092506  -0.540774   0.711431
H  -6.768863  -1.255902   2.252787
H  -6.891304  -2.054527   0.663842
H  -7.266908  -0.320341   0.814516

