%chk=/home/boittier/MDCM/nms_sampling/cyanomethane_geom.xyz.dir/cyanomethane_291.chk
%nproc=8
%mem=16000MB
#p B2PLYPD3/Def2QZVP 

cyanomethane

0 1
C  -6.589452  -1.106132   1.172220
C  -5.201377  -0.813827   0.899944
N  -4.097282  -0.526488   0.706475
H  -6.784411  -1.236084   2.244879
H  -6.872533  -2.048188   0.637201
H  -7.254673  -0.287072   0.787585
