%chk=/home/boittier/MDCM/nms_sampling/cyanomethane_geom.xyz.dir/cyanomethane_2112.chk
%nproc=8
%mem=16000MB
#p B2PLYPD3/Def2QZVP 

cyanomethane

0 1
C  -6.593692  -1.122507   1.180632
C  -5.203070  -0.761161   0.902301
N  -4.101893  -0.554344   0.702225
H  -6.690753  -1.234890   2.206670
H  -6.815670  -2.110631   0.633629
H  -7.266931  -0.271285   0.745738
