%chk=/home/boittier/MDCM/nms_sampling/cyanomethane_geom.xyz.dir/cyanomethane_1901.chk
%nproc=8
%mem=16000MB
#p B2PLYPD3/Def2QZVP 

cyanomethane

0 1
C  -6.598489  -1.099500   1.170900
C  -5.200217  -0.805924   0.869743
N  -4.088514  -0.532269   0.723912
H  -6.845308  -1.263724   2.254126
H  -6.837608  -2.057362   0.697533
H  -7.255572  -0.353059   0.836960
