%chk=/home/boittier/MDCM/nms_sampling/cyanomethane_geom.xyz.dir/cyanomethane_2765.chk
%nproc=8
%mem=16000MB
#p B2PLYPD3/Def2QZVP 

cyanomethane

0 1
C  -6.622298  -1.120966   1.175004
C  -5.188786  -0.729692   0.884000
N  -4.083701  -0.576841   0.709765
H  -6.666982  -1.280733   2.210454
H  -6.737542  -2.089093   0.692737
H  -7.449810  -0.337536   0.831895
