%chk=/home/boittier/MDCM/nms_sampling/cyanomethane_geom.xyz.dir/cyanomethane_1220.chk
%nproc=8
%mem=16000MB
#p B2PLYPD3/Def2QZVP 

cyanomethane

0 1
C  -6.583833  -1.119586   1.157953
C  -5.203566  -0.757481   0.900484
N  -4.102348  -0.556379   0.706578
H  -6.781350  -1.263639   2.278609
H  -6.820429  -2.029431   0.684705
H  -7.280593  -0.374532   0.836337
