%chk=/home/boittier/MDCM/nms_sampling/cyanomethane_geom.xyz.dir/cyanomethane_1451.chk
%nproc=8
%mem=16000MB
#p B2PLYPD3/Def2QZVP 

cyanomethane

0 1
C  -6.595470  -1.122225   1.181703
C  -5.201023  -0.796012   0.886894
N  -4.098930  -0.535153   0.711318
H  -6.729489  -1.174194   2.239895
H  -6.850803  -2.036077   0.652834
H  -7.239625  -0.273736   0.748018

