%chk=/home/boittier/MDCM/nms_sampling/cyanomethane_geom.xyz.dir/cyanomethane_2284.chk
%nproc=8
%mem=16000MB
#p B2PLYPD3/Def2QZVP 

cyanomethane

0 1
C  -6.591587  -1.108754   1.173979
C  -5.202920  -0.774509   0.904644
N  -4.102426  -0.550243   0.704317
H  -6.760662  -1.271389   2.259573
H  -6.744002  -2.088357   0.598836
H  -7.291898  -0.314785   0.755938
