%chk=/home/boittier/MDCM/nms_sampling/cyanomethane_geom.xyz.dir/cyanomethane_2147.chk
%nproc=8
%mem=16000MB
#p B2PLYPD3/Def2QZVP 

cyanomethane

0 1
C  -6.595704  -1.108297   1.165828
C  -5.202631  -0.793519   0.935357
N  -4.100049  -0.538506   0.684367
H  -6.642733  -1.209867   2.179881
H  -6.844939  -2.076908   0.681918
H  -7.294168  -0.330127   0.753288
