%chk=/home/boittier/MDCM/nms_sampling/cyanomethane_geom.xyz.dir/cyanomethane_1041.chk
%nproc=8
%mem=16000MB
#p B2PLYPD3/Def2QZVP 

cyanomethane

0 1
C  -6.587135  -1.120054   1.165366
C  -5.204741  -0.786007   0.914623
N  -4.097550  -0.538439   0.699304
H  -6.789092  -1.206184   2.252429
H  -6.893626  -2.061268   0.657373
H  -7.212429  -0.302351   0.758883

