%chk=/home/boittier/MDCM/nms_sampling/cyanomethane_geom.xyz.dir/cyanomethane_711.chk
%nproc=8
%mem=16000MB
#p B2PLYPD3/Def2QZVP 

cyanomethane

0 1
C  -6.586663  -1.117970   1.171689
C  -5.204532  -0.790946   0.918953
N  -4.097896  -0.537595   0.694111
H  -6.725863  -1.198857   2.212303
H  -6.894562  -2.044839   0.649986
H  -7.277977  -0.303933   0.749318
