%chk=/home/boittier/MDCM/nms_sampling/cyanomethane_geom.xyz.dir/cyanomethane_2086.chk
%nproc=8
%mem=16000MB
#p B2PLYPD3/Def2QZVP 

cyanomethane

0 1
C  -6.611139  -1.121813   1.177514
C  -5.195928  -0.796994   0.884662
N  -4.089145  -0.532058   0.716301
H  -6.829244  -1.184665   2.242835
H  -6.859232  -2.036147   0.655762
H  -7.140959  -0.295611   0.752800
