%chk=/home/boittier/MDCM/nms_sampling/cyanomethane_geom.xyz.dir/cyanomethane_1522.chk
%nproc=8
%mem=16000MB
#p B2PLYPD3/Def2QZVP 

cyanomethane

0 1
C  -6.597269  -1.115806   1.161227
C  -5.199865  -0.794271   0.931867
N  -4.088645  -0.534546   0.686124
H  -6.692641  -1.220841   2.222746
H  -6.969543  -2.042720   0.671499
H  -7.293067  -0.306771   0.792737
