%chk=/home/boittier/MDCM/nms_sampling/cyanomethane_geom.xyz.dir/cyanomethane_2921.chk
%nproc=8
%mem=16000MB
#p B2PLYPD3/Def2QZVP 

cyanomethane

0 1
C  -6.602212  -1.130058   1.165662
C  -5.190756  -0.794441   0.955662
N  -4.084003  -0.533228   0.671241
H  -6.675314  -1.094157   2.222465
H  -7.050467  -2.010897   0.671406
H  -7.347347  -0.321243   0.670106

