%chk=/home/boittier/MDCM/nms_sampling/cyanomethane_geom.xyz.dir/cyanomethane_1397.chk
%nproc=8
%mem=16000MB
#p B2PLYPD3/Def2QZVP 

cyanomethane

0 1
C  -6.594561  -1.126697   1.161763
C  -5.206662  -0.770453   0.897352
N  -4.100122  -0.547518   0.707595
H  -6.728975  -1.227333   2.238768
H  -6.814617  -1.997047   0.698419
H  -7.201904  -0.329924   0.844997
