%chk=/home/boittier/MDCM/nms_sampling/cyanomethane_geom.xyz.dir/cyanomethane_2751.chk
%nproc=8
%mem=16000MB
#p B2PLYPD3/Def2QZVP 

cyanomethane

0 1
C  -6.588680  -1.106800   1.172237
C  -5.210222  -0.812781   0.856863
N  -4.102341  -0.527941   0.738259
H  -6.972011  -1.220263   2.242425
H  -6.674719  -2.082091   0.697062
H  -7.095742  -0.270151   0.810142

