%chk=/home/boittier/MDCM/nms_sampling/cyanomethane_geom.xyz.dir/cyanomethane_567.chk
%nproc=8
%mem=16000MB
#p B2PLYPD3/Def2QZVP 

cyanomethane

0 1
C  -6.605797  -1.117861   1.169007
C  -5.201305  -0.779988   0.902753
N  -4.089300  -0.544804   0.704501
H  -6.753628  -1.212357   2.222734
H  -6.812378  -2.037023   0.679034
H  -7.260874  -0.335990   0.781861

