%chk=/home/boittier/MDCM/nms_sampling/cyanomethane_geom.xyz.dir/cyanomethane_2812.chk
%nproc=8
%mem=16000MB
#p B2PLYPD3/Def2QZVP 

cyanomethane

0 1
C  -6.594240  -1.099513   1.168827
C  -5.199221  -0.752222   0.902006
N  -4.082517  -0.563344   0.705357
H  -6.851847  -1.389619   2.245674
H  -6.814725  -2.088193   0.584900
H  -7.419622  -0.376046   0.841737
