%chk=/home/boittier/MDCM/nms_sampling/cyanomethane_geom.xyz.dir/cyanomethane_570.chk
%nproc=8
%mem=16000MB
#p B2PLYPD3/Def2QZVP 

cyanomethane

0 1
C  -6.592137  -1.116961   1.173490
C  -5.202655  -0.785931   0.884911
N  -4.095042  -0.540279   0.712040
H  -6.743324  -1.229011   2.239707
H  -6.890148  -2.016910   0.681401
H  -7.260837  -0.344129   0.813023
