%chk=/home/boittier/MDCM/nms_sampling/cyanomethane_geom.xyz.dir/cyanomethane_3254.chk
%nproc=8
%mem=16000MB
#p B2PLYPD3/Def2QZVP 

cyanomethane

0 1
C  -6.589346  -1.122102   1.137014
C  -5.203678  -0.786586   0.965179
N  -4.107754  -0.539200   0.671216
H  -6.640055  -1.174456   2.238661
H  -6.854897  -1.996994   0.731089
H  -7.244998  -0.351008   0.806801
