%chk=/home/boittier/MDCM/nms_sampling/cyanomethane_geom.xyz.dir/cyanomethane_1364.chk
%nproc=8
%mem=16000MB
#p B2PLYPD3/Def2QZVP 

cyanomethane

0 1
C  -6.599225  -1.114806   1.165815
C  -5.204969  -0.819451   0.907651
N  -4.097424  -0.519377   0.703092
H  -6.740313  -1.215003   2.239953
H  -6.887365  -2.006927   0.652273
H  -7.120399  -0.274285   0.809505
