%chk=/home/boittier/MDCM/nms_sampling/cyanomethane_geom.xyz.dir/cyanomethane_1510.chk
%nproc=8
%mem=16000MB
#p B2PLYPD3/Def2QZVP 

cyanomethane

0 1
C  -6.599177  -1.114399   1.155186
C  -5.205192  -0.778332   0.940157
N  -4.096403  -0.544401   0.684905
H  -6.694351  -1.254699   2.246601
H  -6.828553  -2.061292   0.641748
H  -7.238172  -0.317281   0.789674
