%chk=/home/boittier/MDCM/nms_sampling/cyanomethane_geom.xyz.dir/cyanomethane_2532.chk
%nproc=8
%mem=16000MB
#p B2PLYPD3/Def2QZVP 

cyanomethane

0 1
C  -6.571504  -1.098311   1.195782
C  -5.210360  -0.846571   0.879804
N  -4.101114  -0.508988   0.715475
H  -6.797719  -1.223020   2.225266
H  -6.925113  -2.053664   0.571198
H  -7.243524  -0.243048   0.729312

