%chk=/home/boittier/MDCM/nms_sampling/cyanomethane_geom.xyz.dir/cyanomethane_278.chk
%nproc=8
%mem=16000MB
#p B2PLYPD3/Def2QZVP 

cyanomethane

0 1
C  -6.595787  -1.111651   1.169551
C  -5.201494  -0.799774   0.889681
N  -4.090329  -0.533708   0.712906
H  -6.823458  -1.205443   2.246617
H  -6.862664  -2.054378   0.693591
H  -7.244533  -0.323075   0.784852

