%chk=/home/boittier/MDCM/nms_sampling/cyanomethane_geom.xyz.dir/cyanomethane_3183.chk
%nproc=8
%mem=16000MB
#p B2PLYPD3/Def2QZVP 

cyanomethane

0 1
C  -6.600765  -1.124472   1.155143
C  -5.192714  -0.849234   0.920675
N  -4.087646  -0.503780   0.697804
H  -6.832067  -1.049902   2.250790
H  -6.974087  -1.995636   0.755926
H  -7.208235  -0.222498   0.754299

