%chk=/home/boittier/MDCM/nms_sampling/cyanomethane_geom.xyz.dir/cyanomethane_1379.chk
%nproc=8
%mem=16000MB
#p B2PLYPD3/Def2QZVP 

cyanomethane

0 1
C  -6.595540  -1.119236   1.170166
C  -5.205846  -0.808287   0.889522
N  -4.095974  -0.527617   0.712358
H  -6.771624  -1.158184   2.202507
H  -6.851201  -2.010600   0.729754
H  -7.178543  -0.311710   0.793578

