%chk=/home/boittier/MDCM/nms_sampling/cyanomethane_geom.xyz.dir/cyanomethane_1648.chk
%nproc=8
%mem=16000MB
#p B2PLYPD3/Def2QZVP 

cyanomethane

0 1
C  -6.603719  -1.111745   1.168631
C  -5.202462  -0.769080   0.899645
N  -4.088499  -0.552675   0.706366
H  -6.764861  -1.231033   2.224709
H  -6.782939  -2.101000   0.698074
H  -7.300694  -0.349182   0.772410

