%chk=/home/boittier/MDCM/nms_sampling/cyanomethane_geom.xyz.dir/cyanomethane_229.chk
%nproc=8
%mem=16000MB
#p B2PLYPD3/Def2QZVP 

cyanomethane

0 1
C  -6.597832  -1.110720   1.160486
C  -5.202434  -0.793715   0.916355
N  -4.095852  -0.537639   0.698717
H  -6.760410  -1.214673   2.215010
H  -6.813969  -2.065743   0.702113
H  -7.242805  -0.322812   0.791129
