%chk=/home/boittier/MDCM/nms_sampling/cyanomethane_geom.xyz.dir/cyanomethane_1240.chk
%nproc=8
%mem=16000MB
#p B2PLYPD3/Def2QZVP 

cyanomethane

0 1
C  -6.585627  -1.133154   1.153931
C  -5.207157  -0.754402   0.917486
N  -4.096990  -0.554953   0.696278
H  -6.747986  -1.223364   2.239582
H  -6.882911  -1.981900   0.702210
H  -7.260489  -0.354490   0.842497

