%chk=/home/boittier/MDCM/nms_sampling/cyanomethane_geom.xyz.dir/cyanomethane_3529.chk
%nproc=8
%mem=16000MB
#p B2PLYPD3/Def2QZVP 

cyanomethane

0 1
C  -6.620724  -1.094787   1.140082
C  -5.198266  -0.845980   0.944090
N  -4.083133  -0.506322   0.689587
H  -6.822862  -1.291423   2.268271
H  -6.850401  -2.013555   0.631782
H  -7.097863  -0.274357   0.872490

