%chk=/home/boittier/MDCM/nms_sampling/cyanomethane_geom.xyz.dir/cyanomethane_908.chk
%nproc=8
%mem=16000MB
#p B2PLYPD3/Def2QZVP 

cyanomethane

0 1
C  -6.595998  -1.108975   1.167412
C  -5.200682  -0.782100   0.910901
N  -4.091562  -0.544074   0.700726
H  -6.786298  -1.252341   2.253482
H  -6.846058  -2.076993   0.641460
H  -7.289300  -0.338664   0.768657

