%chk=/home/boittier/MDCM/nms_sampling/cyanomethane_geom.xyz.dir/cyanomethane_3343.chk
%nproc=8
%mem=16000MB
#p B2PLYPD3/Def2QZVP 

cyanomethane

0 1
C  -6.592022  -1.120373   1.185156
C  -5.205148  -0.834600   0.899060
N  -4.106930  -0.513551   0.703032
H  -6.636855  -1.103095   2.154407
H  -6.880458  -2.039374   0.699214
H  -7.180299  -0.208429   0.728753
