%chk=/home/boittier/MDCM/nms_sampling/cyanomethane_geom.xyz.dir/cyanomethane_1037.chk
%nproc=8
%mem=16000MB
#p B2PLYPD3/Def2QZVP 

cyanomethane

0 1
C  -6.605929  -1.119671   1.168684
C  -5.198185  -0.775807   0.904187
N  -4.090762  -0.545694   0.701855
H  -6.713287  -1.237404   2.224441
H  -6.863587  -2.022848   0.668502
H  -7.264888  -0.335686   0.808626
