%chk=/home/boittier/MDCM/nms_sampling/cyanomethane_geom.xyz.dir/cyanomethane_894.chk
%nproc=8
%mem=16000MB
#p B2PLYPD3/Def2QZVP 

cyanomethane

0 1
C  -6.598217  -1.107619   1.162518
C  -5.203710  -0.797361   0.913300
N  -4.094170  -0.535553   0.698430
H  -6.719160  -1.236879   2.211608
H  -6.846577  -2.050202   0.695580
H  -7.254668  -0.335899   0.812831
