%chk=/home/boittier/MDCM/nms_sampling/cyanomethane_geom.xyz.dir/cyanomethane_965.chk
%nproc=8
%mem=16000MB
#p B2PLYPD3/Def2QZVP 

cyanomethane

0 1
C  -6.596317  -1.109926   1.173931
C  -5.200525  -0.795565   0.886452
N  -4.095703  -0.537470   0.713174
H  -6.774228  -1.219388   2.240509
H  -6.821030  -2.037558   0.676713
H  -7.266239  -0.343776   0.785937

