%chk=/home/boittier/MDCM/nms_sampling/cyanomethane_geom.xyz.dir/cyanomethane_2390.chk
%nproc=8
%mem=16000MB
#p B2PLYPD3/Def2QZVP 

cyanomethane

0 1
C  -6.593167  -1.127247   1.150763
C  -5.208160  -0.777548   0.937546
N  -4.099116  -0.542525   0.686013
H  -6.692891  -1.218808   2.212050
H  -6.856518  -1.976388   0.686877
H  -7.209513  -0.324309   0.837560

