%chk=/home/boittier/MDCM/nms_sampling/cyanomethane_geom.xyz.dir/cyanomethane_1268.chk
%nproc=8
%mem=16000MB
#p B2PLYPD3/Def2QZVP 

cyanomethane

0 1
C  -6.612406  -1.105297   1.164377
C  -5.197286  -0.816280   0.911433
N  -4.088457  -0.527494   0.700126
H  -6.724186  -1.213490   2.217770
H  -6.801081  -2.034562   0.683758
H  -7.282191  -0.294187   0.806508
