%chk=/home/boittier/MDCM/nms_sampling/cyanomethane_geom.xyz.dir/cyanomethane_933.chk
%nproc=8
%mem=16000MB
#p B2PLYPD3/Def2QZVP 

cyanomethane

0 1
C  -6.605309  -1.111750   1.157134
C  -5.200581  -0.788354   0.934612
N  -4.088400  -0.538809   0.689212
H  -6.765335  -1.237526   2.224585
H  -6.855790  -2.074531   0.662082
H  -7.232865  -0.314997   0.779179

