%chk=/home/boittier/MDCM/nms_sampling/cyanomethane_geom.xyz.dir/cyanomethane_276.chk
%nproc=8
%mem=16000MB
#p B2PLYPD3/Def2QZVP 

cyanomethane

0 1
C  -6.589798  -1.108234   1.167714
C  -5.202827  -0.812845   0.909452
N  -4.097785  -0.525360   0.699716
H  -6.730395  -1.222077   2.215820
H  -6.920644  -2.020285   0.675584
H  -7.231429  -0.329910   0.801492
