%chk=/home/boittier/MDCM/nms_sampling/cyanomethane_geom.xyz.dir/cyanomethane_2117.chk
%nproc=8
%mem=16000MB
#p B2PLYPD3/Def2QZVP 

cyanomethane

0 1
C  -6.608485  -1.108211   1.166209
C  -5.202012  -0.806699   0.887949
N  -4.087461  -0.527601   0.715020
H  -6.810529  -1.269764   2.224080
H  -6.859419  -2.054770   0.679651
H  -7.139297  -0.289240   0.853697
