%chk=/home/boittier/MDCM/nms_sampling/cyanomethane_geom.xyz.dir/cyanomethane_2633.chk
%nproc=8
%mem=16000MB
#p B2PLYPD3/Def2QZVP 

cyanomethane

0 1
C  -6.591263  -1.102784   1.177731
C  -5.195690  -0.800255   0.942640
N  -4.094164  -0.532766   0.678816
H  -6.688945  -1.217940   2.229172
H  -6.994769  -2.090874   0.587142
H  -7.320611  -0.364321   0.660315
