%chk=/home/boittier/MDCM/nms_sampling/cyanomethane_geom.xyz.dir/cyanomethane_1870.chk
%nproc=8
%mem=16000MB
#p B2PLYPD3/Def2QZVP 

cyanomethane

0 1
C  -6.589141  -1.127575   1.161846
C  -5.206374  -0.757627   0.906058
N  -4.099972  -0.556377   0.703471
H  -6.758428  -1.181948   2.265331
H  -6.793004  -2.048732   0.706935
H  -7.266655  -0.350627   0.764886
