%chk=/home/boittier/MDCM/nms_sampling/cyanomethane_geom.xyz.dir/cyanomethane_2161.chk
%nproc=8
%mem=16000MB
#p B2PLYPD3/Def2QZVP 

cyanomethane

0 1
C  -6.601876  -1.110576   1.163192
C  -5.202805  -0.805210   0.875894
N  -4.091357  -0.533052   0.722516
H  -6.830615  -1.192543   2.268403
H  -6.762475  -2.075706   0.743438
H  -7.233068  -0.283145   0.821760

