%chk=/home/boittier/MDCM/nms_sampling/cyanomethane_geom.xyz.dir/cyanomethane_883.chk
%nproc=8
%mem=16000MB
#p B2PLYPD3/Def2QZVP 

cyanomethane

0 1
C  -6.594470  -1.118691   1.165250
C  -5.205136  -0.791985   0.887046
N  -4.096536  -0.535949   0.714201
H  -6.782671  -1.231631   2.231567
H  -6.846544  -2.024077   0.702462
H  -7.184915  -0.300128   0.848352

