%chk=/home/boittier/MDCM/nms_sampling/cyanomethane_geom.xyz.dir/cyanomethane_2343.chk
%nproc=8
%mem=16000MB
#p B2PLYPD3/Def2QZVP 

cyanomethane

0 1
C  -6.597674  -1.103786   1.150206
C  -5.197679  -0.832110   0.917040
N  -4.091145  -0.516144   0.698656
H  -6.783197  -1.207531   2.260798
H  -6.909839  -1.982382   0.717745
H  -7.250807  -0.337740   0.848929

