%chk=/home/boittier/MDCM/nms_sampling/cyanomethane_geom.xyz.dir/cyanomethane_438.chk
%nproc=8
%mem=16000MB
#p B2PLYPD3/Def2QZVP 

cyanomethane

0 1
C  -6.601034  -1.105502   1.163874
C  -5.197875  -0.795328   0.925503
N  -4.090697  -0.535689   0.691432
H  -6.728119  -1.275950   2.232576
H  -6.901042  -2.067070   0.631079
H  -7.276692  -0.315439   0.798572

