%chk=/home/boittier/MDCM/nms_sampling/cyanomethane_geom.xyz.dir/cyanomethane_2045.chk
%nproc=8
%mem=16000MB
#p B2PLYPD3/Def2QZVP 

cyanomethane

0 1
C  -6.614498  -1.121833   1.171925
C  -5.197856  -0.787995   0.883377
N  -4.085325  -0.535870   0.714952
H  -6.769257  -1.241658   2.229145
H  -6.898047  -2.037481   0.675708
H  -7.149100  -0.284443   0.833646
