%chk=/home/boittier/MDCM/nms_sampling/cyanomethane_geom.xyz.dir/cyanomethane_429.chk
%nproc=8
%mem=16000MB
#p B2PLYPD3/Def2QZVP 

cyanomethane

0 1
C  -6.605213  -1.113986   1.169534
C  -5.199375  -0.785392   0.920722
N  -4.091257  -0.540865   0.692855
H  -6.695688  -1.232510   2.202172
H  -6.870970  -2.041262   0.651016
H  -7.263046  -0.337249   0.772804
