%chk=/home/boittier/MDCM/nms_sampling/cyanomethane_geom.xyz.dir/cyanomethane_672.chk
%nproc=8
%mem=16000MB
#p B2PLYPD3/Def2QZVP 

cyanomethane

0 1
C  -6.590709  -1.116247   1.167549
C  -5.201508  -0.786760   0.918560
N  -4.097676  -0.538134   0.694978
H  -6.736406  -1.254795   2.236841
H  -6.915762  -2.025779   0.621122
H  -7.237197  -0.319735   0.792095
