%chk=/home/boittier/MDCM/nms_sampling/cyanomethane_geom.xyz.dir/cyanomethane_2210.chk
%nproc=8
%mem=16000MB
#p B2PLYPD3/Def2QZVP 

cyanomethane

0 1
C  -6.598341  -1.098759   1.172425
C  -5.202697  -0.828571   0.913325
N  -4.100598  -0.519187   0.698420
H  -6.698115  -1.236472   2.216612
H  -6.834584  -2.036286   0.628983
H  -7.210325  -0.306979   0.776242
