%chk=/home/boittier/MDCM/nms_sampling/cyanomethane_geom.xyz.dir/cyanomethane_1140.chk
%nproc=8
%mem=16000MB
#p B2PLYPD3/Def2QZVP 

cyanomethane

0 1
C  -6.590636  -1.113647   1.172780
C  -5.205069  -0.803522   0.908605
N  -4.096425  -0.530013   0.700170
H  -6.729793  -1.221348   2.242796
H  -6.905370  -2.037827   0.631042
H  -7.229690  -0.293869   0.769498

