%chk=/home/boittier/MDCM/nms_sampling/cyanomethane_geom.xyz.dir/cyanomethane_1121.chk
%nproc=8
%mem=16000MB
#p B2PLYPD3/Def2QZVP 

cyanomethane

0 1
C  -6.590190  -1.117319   1.173059
C  -5.202335  -0.787682   0.912581
N  -4.097453  -0.539718   0.697392
H  -6.727588  -1.200835   2.210004
H  -6.882947  -2.043597   0.659657
H  -7.278014  -0.322755   0.752290
