%chk=/home/boittier/MDCM/nms_sampling/cyanomethane_geom.xyz.dir/cyanomethane_1892.chk
%nproc=8
%mem=16000MB
#p B2PLYPD3/Def2QZVP 

cyanomethane

0 1
C  -6.611586  -1.098038   1.172008
C  -5.199773  -0.810609   0.885568
N  -4.085060  -0.529433   0.713774
H  -6.756857  -1.269651   2.258581
H  -6.838310  -2.069105   0.660613
H  -7.239531  -0.329266   0.814186

