%chk=/home/boittier/MDCM/nms_sampling/cyanomethane_geom.xyz.dir/cyanomethane_469.chk
%nproc=8
%mem=16000MB
#p B2PLYPD3/Def2QZVP 

cyanomethane

0 1
C  -6.588003  -1.124781   1.167517
C  -5.202517  -0.793729   0.894973
N  -4.099297  -0.534934   0.709829
H  -6.800877  -1.170838   2.238060
H  -6.870069  -2.020058   0.701290
H  -7.215351  -0.291771   0.788960

