%chk=/home/boittier/MDCM/nms_sampling/cyanomethane_geom.xyz.dir/cyanomethane_47.chk
%nproc=8
%mem=16000MB
#p B2PLYPD3/Def2QZVP 

cyanomethane

0 1
C  -6.597051  -1.111802   1.166071
C  -5.200606  -0.798811   0.895845
N  -4.090309  -0.535029   0.709886
H  -6.820873  -1.201711   2.234866
H  -6.841201  -2.043438   0.704331
H  -7.264455  -0.328836   0.793262

