%chk=/home/boittier/MDCM/nms_sampling/cyanomethane_geom.xyz.dir/cyanomethane_3034.chk
%nproc=8
%mem=16000MB
#p B2PLYPD3/Def2QZVP 

cyanomethane

0 1
C  -6.598605  -1.104386   1.125012
C  -5.198978  -0.797734   0.984594
N  -4.083218  -0.534873   0.663820
H  -6.784744  -1.234341   2.183481
H  -6.912508  -2.010551   0.752102
H  -7.330155  -0.403262   0.851037
