%chk=/home/boittier/MDCM/nms_sampling/cyanomethane_geom.xyz.dir/cyanomethane_477.chk
%nproc=8
%mem=16000MB
#p B2PLYPD3/Def2QZVP 

cyanomethane

0 1
C  -6.590127  -1.115519   1.167968
C  -5.202731  -0.782071   0.898360
N  -4.096601  -0.543016   0.708212
H  -6.804313  -1.229331   2.271521
H  -6.840311  -2.067374   0.656759
H  -7.252241  -0.315106   0.776224

