%chk=/home/boittier/MDCM/nms_sampling/cyanomethane_geom.xyz.dir/cyanomethane_1994.chk
%nproc=8
%mem=16000MB
#p B2PLYPD3/Def2QZVP 

cyanomethane

0 1
C  -6.586466  -1.098424   1.177992
C  -5.201849  -0.792502   0.878710
N  -4.101106  -0.541017   0.718517
H  -6.815728  -1.266609   2.286809
H  -6.790398  -2.103181   0.633696
H  -7.283688  -0.352202   0.759090

