%chk=/home/boittier/MDCM/nms_sampling/cyanomethane_geom.xyz.dir/cyanomethane_20.chk
%nproc=8
%mem=16000MB
#p B2PLYPD3/Def2QZVP 

cyanomethane

0 1
C  -6.597205  -1.121937   1.163274
C  -5.202093  -0.790294   0.927976
N  -4.091103  -0.536505   0.691278
H  -6.760466  -1.181660   2.225919
H  -6.897517  -2.018765   0.663846
H  -7.238637  -0.321951   0.753323
