%chk=/home/boittier/MDCM/nms_sampling/cyanomethane_geom.xyz.dir/cyanomethane_3253.chk
%nproc=8
%mem=16000MB
#p B2PLYPD3/Def2QZVP 

cyanomethane

0 1
C  -6.572904  -1.080632   1.167842
C  -5.202680  -0.874794   0.921968
N  -4.106746  -0.498451   0.695847
H  -6.793254  -1.157517   2.210132
H  -6.867533  -2.061424   0.692954
H  -7.304928  -0.328524   0.721414
