%chk=/home/boittier/MDCM/nms_sampling/cyanomethane_geom.xyz.dir/cyanomethane_2761.chk
%nproc=8
%mem=16000MB
#p B2PLYPD3/Def2QZVP 

cyanomethane

0 1
C  -6.570437  -1.087266   1.152027
C  -5.212547  -0.850212   0.926860
N  -4.104138  -0.505089   0.695685
H  -6.827903  -1.286746   2.211930
H  -6.923486  -2.023951   0.668195
H  -7.158847  -0.331244   0.861064

