%chk=/home/boittier/MDCM/nms_sampling/cyanomethane_geom.xyz.dir/cyanomethane_340.chk
%nproc=8
%mem=16000MB
#p B2PLYPD3/Def2QZVP 

cyanomethane

0 1
C  -6.597946  -1.117885   1.166911
C  -5.200389  -0.794190   0.884290
N  -4.090698  -0.535526   0.714998
H  -6.799437  -1.205756   2.249975
H  -6.878988  -2.030089   0.713313
H  -7.233411  -0.315723   0.821555
