%chk=/home/boittier/MDCM/nms_sampling/cyanomethane_geom.xyz.dir/cyanomethane_3315.chk
%nproc=8
%mem=16000MB
#p B2PLYPD3/Def2QZVP 

cyanomethane

0 1
C  -6.589032  -1.109211   1.188888
C  -5.201540  -0.819849   0.890499
N  -4.087184  -0.518316   0.705731
H  -6.735252  -1.269181   2.191522
H  -7.078768  -1.988616   0.591036
H  -7.240121  -0.307589   0.804621

