%chk=/home/boittier/MDCM/nms_sampling/cyanomethane_geom.xyz.dir/cyanomethane_1421.chk
%nproc=8
%mem=16000MB
#p B2PLYPD3/Def2QZVP 

cyanomethane

0 1
C  -6.600934  -1.113568   1.155637
C  -5.204149  -0.794384   0.938318
N  -4.094106  -0.537985   0.685891
H  -6.699798  -1.192024   2.192768
H  -6.803924  -2.063653   0.708503
H  -7.279671  -0.298480   0.781467
