%chk=/home/boittier/MDCM/nms_sampling/cyanomethane_geom.xyz.dir/cyanomethane_356.chk
%nproc=8
%mem=16000MB
#p B2PLYPD3/Def2QZVP 

cyanomethane

0 1
C  -6.590499  -1.107280   1.172394
C  -5.204236  -0.802243   0.896201
N  -4.097489  -0.533243   0.709178
H  -6.794010  -1.235784   2.224853
H  -6.825749  -2.059203   0.657566
H  -7.241470  -0.309066   0.786266

