%chk=/home/boittier/MDCM/nms_sampling/cyanomethane_geom.xyz.dir/cyanomethane_1945.chk
%nproc=8
%mem=16000MB
#p B2PLYPD3/Def2QZVP 

cyanomethane

0 1
C  -6.597408  -1.110861   1.153285
C  -5.205720  -0.804524   0.880522
N  -4.096867  -0.531842   0.719780
H  -6.793818  -1.219193   2.278565
H  -6.781220  -2.016848   0.760659
H  -7.193255  -0.330944   0.883028

