%chk=/home/boittier/MDCM/nms_sampling/cyanomethane_geom.xyz.dir/cyanomethane_319.chk
%nproc=8
%mem=16000MB
#p B2PLYPD3/Def2QZVP 

cyanomethane

0 1
C  -6.588089  -1.116492   1.167924
C  -5.204594  -0.778716   0.895396
N  -4.097991  -0.544788   0.706898
H  -6.734485  -1.234849   2.253013
H  -6.867889  -2.027098   0.681642
H  -7.276755  -0.354497   0.809941

