%chk=/home/boittier/MDCM/nms_sampling/cyanomethane_geom.xyz.dir/cyanomethane_630.chk
%nproc=8
%mem=16000MB
#p B2PLYPD3/Def2QZVP 

cyanomethane

0 1
C  -6.598738  -1.117272   1.174880
C  -5.202467  -0.770333   0.899997
N  -4.095915  -0.547817   0.703898
H  -6.709622  -1.271038   2.223689
H  -6.865524  -2.054874   0.632556
H  -7.229203  -0.328245   0.796033
