%chk=/home/boittier/MDCM/nms_sampling/cyanomethane_geom.xyz.dir/cyanomethane_1727.chk
%nproc=8
%mem=16000MB
#p B2PLYPD3/Def2QZVP 

cyanomethane

0 1
C  -6.589461  -1.115785   1.160127
C  -5.204169  -0.822409   0.914461
N  -4.102123  -0.516299   0.698118
H  -6.721172  -1.186398   2.216957
H  -6.966591  -1.997475   0.712544
H  -7.121102  -0.311224   0.818515

