%chk=/home/boittier/MDCM/nms_sampling/cyanomethane_geom.xyz.dir/cyanomethane_2497.chk
%nproc=8
%mem=16000MB
#p B2PLYPD3/Def2QZVP 

cyanomethane

0 1
C  -6.571198  -1.101128   1.175857
C  -5.210319  -0.821321   0.933267
N  -4.100411  -0.527121   0.686028
H  -6.732494  -1.150823   2.145315
H  -6.849808  -2.053237   0.673990
H  -7.399108  -0.334514   0.692005
