%chk=/home/boittier/MDCM/nms_sampling/cyanomethane_geom.xyz.dir/cyanomethane_458.chk
%nproc=8
%mem=16000MB
#p B2PLYPD3/Def2QZVP 

cyanomethane

0 1
C  -6.597741  -1.116460   1.169240
C  -5.201715  -0.773900   0.898830
N  -4.097268  -0.546133   0.706380
H  -6.746048  -1.267336   2.237246
H  -6.844406  -2.052178   0.650816
H  -7.216242  -0.327366   0.811938

