%chk=/home/boittier/MDCM/nms_sampling/cyanomethane_geom.xyz.dir/cyanomethane_2414.chk
%nproc=8
%mem=16000MB
#p B2PLYPD3/Def2QZVP 

cyanomethane

0 1
C  -6.604235  -1.113125   1.184129
C  -5.202455  -0.765366   0.896763
N  -4.085637  -0.555115   0.707426
H  -6.780162  -1.280335   2.234702
H  -6.767879  -2.136763   0.574510
H  -7.334034  -0.246866   0.740179

