%chk=/home/boittier/MDCM/nms_sampling/cyanomethane_geom.xyz.dir/cyanomethane_2763.chk
%nproc=8
%mem=16000MB
#p B2PLYPD3/Def2QZVP 

cyanomethane

0 1
C  -6.610930  -1.087749   1.153242
C  -5.198200  -0.868003   0.908670
N  -4.078230  -0.500208   0.701642
H  -6.742947  -1.193948   2.299711
H  -6.913793  -1.967059   0.718187
H  -7.303804  -0.359545   0.839587
