%chk=/home/boittier/MDCM/nms_sampling/cyanomethane_geom.xyz.dir/cyanomethane_3076.chk
%nproc=8
%mem=16000MB
#p B2PLYPD3/Def2QZVP 

cyanomethane

0 1
C  -6.600023  -1.091027   1.181650
C  -5.197364  -0.875381   0.913701
N  -4.084884  -0.493732   0.698884
H  -6.793762  -1.192978   2.301535
H  -6.960561  -2.018429   0.539884
H  -7.256299  -0.258487   0.693921

