%chk=/home/boittier/MDCM/nms_sampling/cyanomethane_geom.xyz.dir/cyanomethane_846.chk
%nproc=8
%mem=16000MB
#p B2PLYPD3/Def2QZVP 

cyanomethane

0 1
C  -6.598344  -1.116012   1.164250
C  -5.199730  -0.796927   0.916130
N  -4.092287  -0.532185   0.697545
H  -6.764815  -1.230577   2.234582
H  -6.921304  -2.018005   0.652334
H  -7.207842  -0.320760   0.797856
