%chk=/home/boittier/MDCM/nms_sampling/cyanomethane_geom.xyz.dir/cyanomethane_1979.chk
%nproc=8
%mem=16000MB
#p B2PLYPD3/Def2QZVP 

cyanomethane

0 1
C  -6.608721  -1.108870   1.169548
C  -5.195921  -0.765242   0.897483
N  -4.089220  -0.555273   0.708434
H  -6.782898  -1.270682   2.267125
H  -6.764205  -2.147312   0.652072
H  -7.309797  -0.302409   0.770761

