%chk=/home/boittier/MDCM/nms_sampling/cyanomethane_geom.xyz.dir/cyanomethane_114.chk
%nproc=8
%mem=16000MB
#p B2PLYPD3/Def2QZVP 

cyanomethane

0 1
C  -6.596655  -1.115061   1.170859
C  -5.203111  -0.805983   0.900839
N  -4.098180  -0.528601   0.704014
H  -6.704912  -1.207510   2.213989
H  -6.884993  -2.004589   0.679082
H  -7.200702  -0.319708   0.803368
