%chk=/home/boittier/MDCM/nms_sampling/cyanomethane_geom.xyz.dir/cyanomethane_456.chk
%nproc=8
%mem=16000MB
#p B2PLYPD3/Def2QZVP 

cyanomethane

0 1
C  -6.589998  -1.105612   1.169820
C  -5.204294  -0.792795   0.888592
N  -4.095700  -0.537899   0.712787
H  -6.795040  -1.264771   2.262947
H  -6.850696  -2.058532   0.660607
H  -7.246269  -0.347907   0.807921

