%chk=/home/boittier/MDCM/nms_sampling/cyanomethane_geom.xyz.dir/cyanomethane_3012.chk
%nproc=8
%mem=16000MB
#p B2PLYPD3/Def2QZVP 

cyanomethane

0 1
C  -6.598648  -1.124847   1.165510
C  -5.211251  -0.778131   0.972974
N  -4.101758  -0.538662   0.664866
H  -6.601498  -1.196184   2.167986
H  -6.917970  -2.062408   0.602182
H  -7.100102  -0.320108   0.680432
