%chk=/home/boittier/MDCM/nms_sampling/cyanomethane_geom.xyz.dir/cyanomethane_696.chk
%nproc=8
%mem=16000MB
#p B2PLYPD3/Def2QZVP 

cyanomethane

0 1
C  -6.588243  -1.117188   1.166778
C  -5.203194  -0.787891   0.924410
N  -4.098782  -0.539659   0.691474
H  -6.716930  -1.194144   2.236705
H  -6.882851  -2.038952   0.657170
H  -7.284515  -0.332207   0.744762

