%chk=/home/boittier/MDCM/nms_sampling/cyanomethane_geom.xyz.dir/cyanomethane_725.chk
%nproc=8
%mem=16000MB
#p B2PLYPD3/Def2QZVP 

cyanomethane

0 1
C  -6.602393  -1.114936   1.157769
C  -5.198797  -0.780425   0.919766
N  -4.090894  -0.544658   0.696606
H  -6.769197  -1.225104   2.228757
H  -6.826251  -2.058122   0.695198
H  -7.280072  -0.328740   0.799976
