%chk=/home/boittier/MDCM/nms_sampling/cyanomethane_geom.xyz.dir/cyanomethane_1649.chk
%nproc=8
%mem=16000MB
#p B2PLYPD3/Def2QZVP 

cyanomethane

0 1
C  -6.584331  -1.106768   1.160195
C  -5.205877  -0.829586   0.927362
N  -4.096908  -0.515970   0.696184
H  -6.867160  -1.193619   2.240342
H  -6.880531  -2.017605   0.642255
H  -7.178756  -0.305333   0.757286

