%chk=/home/boittier/MDCM/nms_sampling/cyanomethane_geom.xyz.dir/cyanomethane_2404.chk
%nproc=8
%mem=16000MB
#p B2PLYPD3/Def2QZVP 

cyanomethane

0 1
C  -6.596098  -1.127188   1.182255
C  -5.201617  -0.740302   0.912561
N  -4.102565  -0.565775   0.696752
H  -6.681958  -1.273540   2.209818
H  -6.778149  -2.131250   0.574288
H  -7.292271  -0.235805   0.737820

