%chk=/home/boittier/MDCM/nms_sampling/cyanomethane_geom.xyz.dir/cyanomethane_783.chk
%nproc=8
%mem=16000MB
#p B2PLYPD3/Def2QZVP 

cyanomethane

0 1
C  -6.603963  -1.113123   1.178092
C  -5.200604  -0.800269   0.888416
N  -4.089882  -0.532466   0.711608
H  -6.760935  -1.207086   2.247379
H  -6.874537  -2.059901   0.656091
H  -7.213712  -0.307088   0.757266
