%chk=/home/boittier/MDCM/nms_sampling/cyanomethane_geom.xyz.dir/cyanomethane_3370.chk
%nproc=8
%mem=16000MB
#p B2PLYPD3/Def2QZVP 

cyanomethane

0 1
C  -6.599828  -1.118673   1.162858
C  -5.199285  -0.726068   0.895256
N  -4.081474  -0.577050   0.706240
H  -6.760939  -1.283425   2.281001
H  -6.818621  -2.112441   0.698483
H  -7.451938  -0.376018   0.816197
