%chk=/home/boittier/MDCM/nms_sampling/cyanomethane_geom.xyz.dir/cyanomethane_786.chk
%nproc=8
%mem=16000MB
#p B2PLYPD3/Def2QZVP 

cyanomethane

0 1
C  -6.604434  -1.120954   1.162005
C  -5.200596  -0.768012   0.904828
N  -4.089951  -0.548219   0.704126
H  -6.766506  -1.256163   2.245000
H  -6.864287  -2.069337   0.678155
H  -7.210113  -0.310029   0.821462

