%chk=/home/boittier/MDCM/nms_sampling/cyanomethane_geom.xyz.dir/cyanomethane_3472.chk
%nproc=8
%mem=16000MB
#p B2PLYPD3/Def2QZVP 

cyanomethane

0 1
C  -6.606135  -1.112851   1.127809
C  -5.197543  -0.803008   0.981955
N  -4.080681  -0.533345   0.667133
H  -6.809163  -1.144760   2.292754
H  -6.848090  -2.006495   0.714175
H  -7.336595  -0.369681   0.752209

