%chk=/home/boittier/MDCM/nms_sampling/cyanomethane_geom.xyz.dir/cyanomethane_1255.chk
%nproc=8
%mem=16000MB
#p B2PLYPD3/Def2QZVP 

cyanomethane

0 1
C  -6.586240  -1.111845   1.155180
C  -5.207215  -0.760315   0.903362
N  -4.098663  -0.554471   0.706730
H  -6.806871  -1.317221   2.295970
H  -6.812000  -2.058654   0.652682
H  -7.241983  -0.366841   0.852622

