%chk=/home/boittier/MDCM/nms_sampling/cyanomethane_geom.xyz.dir/cyanomethane_237.chk
%nproc=8
%mem=16000MB
#p B2PLYPD3/Def2QZVP 

cyanomethane

0 1
C  -6.602749  -1.117487   1.169182
C  -5.200321  -0.791824   0.892699
N  -4.088513  -0.535135   0.711284
H  -6.814525  -1.236163   2.237171
H  -6.886827  -2.027845   0.664607
H  -7.184255  -0.314396   0.811876
