%chk=/home/boittier/MDCM/nms_sampling/cyanomethane_geom.xyz.dir/cyanomethane_855.chk
%nproc=8
%mem=16000MB
#p B2PLYPD3/Def2QZVP 

cyanomethane

0 1
C  -6.596016  -1.112661   1.173554
C  -5.202960  -0.781632   0.910661
N  -4.096482  -0.543362   0.699473
H  -6.733478  -1.249688   2.219977
H  -6.838721  -2.068097   0.627602
H  -7.252131  -0.319363   0.763811
