%chk=/home/boittier/MDCM/nms_sampling/cyanomethane_geom.xyz.dir/cyanomethane_3417.chk
%nproc=8
%mem=16000MB
#p B2PLYPD3/Def2QZVP 

cyanomethane

0 1
C  -6.627774  -1.102940   1.154206
C  -5.189976  -0.857324   0.940947
N  -4.084503  -0.504052   0.688190
H  -6.769705  -1.110753   2.213295
H  -6.809178  -1.990518   0.709800
H  -7.189972  -0.309108   0.740098
