%chk=/home/boittier/MDCM/nms_sampling/cyanomethane_geom.xyz.dir/cyanomethane_3223.chk
%nproc=8
%mem=16000MB
#p B2PLYPD3/Def2QZVP 

cyanomethane

0 1
C  -6.613384  -1.128686   1.183067
C  -5.201800  -0.741318   0.899207
N  -4.081431  -0.564859   0.701466
H  -6.672692  -1.178159   2.157835
H  -6.857697  -2.128239   0.717318
H  -7.305734  -0.339827   0.711074

