%chk=/home/boittier/MDCM/nms_sampling/cyanomethane_geom.xyz.dir/cyanomethane_2324.chk
%nproc=8
%mem=16000MB
#p B2PLYPD3/Def2QZVP 

cyanomethane

0 1
C  -6.590006  -1.097051   1.177120
C  -5.203799  -0.814555   0.878536
N  -4.094491  -0.528142   0.719151
H  -6.832759  -1.250984   2.285399
H  -6.827648  -2.068787   0.633716
H  -7.255919  -0.334875   0.771653
