%chk=/home/boittier/MDCM/nms_sampling/cyanomethane_geom.xyz.dir/cyanomethane_1171.chk
%nproc=8
%mem=16000MB
#p B2PLYPD3/Def2QZVP 

cyanomethane

0 1
C  -6.598480  -1.118317   1.166580
C  -5.201329  -0.776945   0.903097
N  -4.096591  -0.543260   0.704603
H  -6.754628  -1.242460   2.223335
H  -6.870596  -2.070932   0.681064
H  -7.185764  -0.317238   0.802628
