%chk=/home/boittier/MDCM/nms_sampling/cyanomethane_geom.xyz.dir/cyanomethane_2222.chk
%nproc=8
%mem=16000MB
#p B2PLYPD3/Def2QZVP 

cyanomethane

0 1
C  -6.596464  -1.119696   1.182253
C  -5.203482  -0.756217   0.888121
N  -4.091398  -0.556675   0.709585
H  -6.737870  -1.241663   2.253893
H  -6.863823  -2.083383   0.633145
H  -7.282136  -0.355597   0.738557
