%chk=/home/boittier/MDCM/nms_sampling/cyanomethane_geom.xyz.dir/cyanomethane_1697.chk
%nproc=8
%mem=16000MB
#p B2PLYPD3/Def2QZVP 

cyanomethane

0 1
C  -6.601482  -1.114103   1.172362
C  -5.199460  -0.759196   0.894444
N  -4.085719  -0.557987   0.706086
H  -6.739108  -1.265816   2.205720
H  -6.837099  -2.053541   0.683726
H  -7.373733  -0.373510   0.814107

