%chk=/home/boittier/MDCM/nms_sampling/cyanomethane_geom.xyz.dir/cyanomethane_169.chk
%nproc=8
%mem=16000MB
#p B2PLYPD3/Def2QZVP 

cyanomethane

0 1
C  -6.590108  -1.109467   1.158784
C  -5.203108  -0.804246   0.920920
N  -4.098187  -0.529190   0.696708
H  -6.785800  -1.246591   2.239544
H  -6.888025  -2.018942   0.654837
H  -7.196855  -0.333239   0.811834
