%chk=/home/boittier/MDCM/nms_sampling/cyanomethane_geom.xyz.dir/cyanomethane_280.chk
%nproc=8
%mem=16000MB
#p B2PLYPD3/Def2QZVP 

cyanomethane

0 1
C  -6.592196  -1.114644   1.167180
C  -5.202707  -0.788418   0.893758
N  -4.095228  -0.538969   0.711940
H  -6.838215  -1.234750   2.263169
H  -6.836441  -2.043676   0.659528
H  -7.216824  -0.323530   0.795007
