%chk=/home/boittier/MDCM/nms_sampling/cyanomethane_geom.xyz.dir/cyanomethane_2470.chk
%nproc=8
%mem=16000MB
#p B2PLYPD3/Def2QZVP 

cyanomethane

0 1
C  -6.603865  -1.114767   1.135739
C  -5.191313  -0.784881   0.994726
N  -4.088954  -0.542529   0.659602
H  -6.805791  -1.147882   2.180774
H  -6.843934  -2.080758   0.723173
H  -7.327666  -0.351466   0.710801

