%chk=/home/boittier/MDCM/nms_sampling/cyanomethane_geom.xyz.dir/cyanomethane_1741.chk
%nproc=8
%mem=16000MB
#p B2PLYPD3/Def2QZVP 

cyanomethane

0 1
C  -6.597140  -1.121868   1.155262
C  -5.198291  -0.762167   0.909638
N  -4.089741  -0.554612   0.702925
H  -6.830274  -1.201717   2.263759
H  -6.821709  -2.027211   0.719009
H  -7.310695  -0.388189   0.793618

