%chk=/home/boittier/MDCM/nms_sampling/cyanomethane_geom.xyz.dir/cyanomethane_2036.chk
%nproc=8
%mem=16000MB
#p B2PLYPD3/Def2QZVP 

cyanomethane

0 1
C  -6.615060  -1.127965   1.170416
C  -5.194414  -0.767932   0.894585
N  -4.088289  -0.549150   0.708427
H  -6.751781  -1.160343   2.230588
H  -6.842167  -2.045771   0.722060
H  -7.218042  -0.352502   0.752048
