%chk=/home/boittier/MDCM/nms_sampling/cyanomethane_geom.xyz.dir/cyanomethane_1238.chk
%nproc=8
%mem=16000MB
#p B2PLYPD3/Def2QZVP 

cyanomethane

0 1
C  -6.609960  -1.116274   1.151735
C  -5.200209  -0.778232   0.902676
N  -4.087384  -0.545375   0.706877
H  -6.779063  -1.231910   2.271164
H  -6.801154  -2.025383   0.728734
H  -7.236572  -0.361018   0.848718
