%chk=/home/boittier/MDCM/nms_sampling/cyanomethane_geom.xyz.dir/cyanomethane_3148.chk
%nproc=8
%mem=16000MB
#p B2PLYPD3/Def2QZVP 

cyanomethane

0 1
C  -6.602104  -1.114471   1.155419
C  -5.191172  -0.720569   0.911479
N  -4.087897  -0.574440   0.702492
H  -6.874219  -1.357140   2.305029
H  -6.864065  -2.094404   0.626774
H  -7.276017  -0.447302   0.815489
