%chk=/home/boittier/MDCM/nms_sampling/cyanomethane_geom.xyz.dir/cyanomethane_3262.chk
%nproc=8
%mem=16000MB
#p B2PLYPD3/Def2QZVP 

cyanomethane

0 1
C  -6.595043  -1.105675   1.145287
C  -5.209882  -0.855315   0.945342
N  -4.096434  -0.504447   0.688259
H  -6.810409  -1.095126   2.169376
H  -6.790093  -2.032789   0.777678
H  -7.153193  -0.270625   0.767741
