%chk=/home/boittier/MDCM/nms_sampling/cyanomethane_geom.xyz.dir/cyanomethane_3402.chk
%nproc=8
%mem=16000MB
#p B2PLYPD3/Def2QZVP 

cyanomethane

0 1
C  -6.605913  -1.095415   1.159331
C  -5.197929  -0.764389   0.951970
N  -4.078163  -0.553102   0.676051
H  -6.731146  -1.379558   2.232605
H  -6.933276  -2.064030   0.564543
H  -7.359546  -0.438023   0.798862

