%chk=/home/boittier/MDCM/nms_sampling/cyanomethane_geom.xyz.dir/cyanomethane_2014.chk
%nproc=8
%mem=16000MB
#p B2PLYPD3/Def2QZVP 

cyanomethane

0 1
C  -6.590241  -1.112228   1.174630
C  -5.202729  -0.800636   0.926265
N  -4.091389  -0.530068   0.689381
H  -6.734937  -1.248398   2.176948
H  -6.982542  -2.033141   0.610932
H  -7.249656  -0.308964   0.768962
