%chk=/home/boittier/MDCM/nms_sampling/cyanomethane_geom.xyz.dir/cyanomethane_1894.chk
%nproc=8
%mem=16000MB
#p B2PLYPD3/Def2QZVP 

cyanomethane

0 1
C  -6.609637  -1.105251   1.168154
C  -5.196323  -0.799220   0.922308
N  -4.088182  -0.531569   0.691844
H  -6.691206  -1.278617   2.210110
H  -6.944764  -2.080425   0.636576
H  -7.218725  -0.311528   0.796802
