%chk=/home/boittier/MDCM/nms_sampling/cyanomethane_geom.xyz.dir/cyanomethane_3577.chk
%nproc=8
%mem=16000MB
#p B2PLYPD3/Def2QZVP 

cyanomethane

0 1
C  -6.588677  -1.094494   1.175024
C  -5.205772  -0.808326   0.875404
N  -4.104423  -0.532586   0.721681
H  -6.800005  -1.326297   2.262274
H  -6.734237  -2.084462   0.609958
H  -7.233216  -0.276851   0.844566

