%chk=/home/boittier/MDCM/nms_sampling/cyanomethane_geom.xyz.dir/cyanomethane_2447.chk
%nproc=8
%mem=16000MB
#p B2PLYPD3/Def2QZVP 

cyanomethane

0 1
C  -6.576269  -1.112022   1.137277
C  -5.211234  -0.794900   0.988585
N  -4.103053  -0.535616   0.664472
H  -6.801563  -1.220603   2.287322
H  -6.822474  -2.062119   0.600814
H  -7.251109  -0.292344   0.732040
