%chk=/home/boittier/MDCM/nms_sampling/cyanomethane_geom.xyz.dir/cyanomethane_2915.chk
%nproc=8
%mem=16000MB
#p B2PLYPD3/Def2QZVP 

cyanomethane

0 1
C  -6.590719  -1.096135   1.173291
C  -5.210175  -0.799337   0.962337
N  -4.104780  -0.538085   0.671025
H  -6.628047  -1.256871   2.187311
H  -6.753240  -2.093294   0.546166
H  -7.307441  -0.328896   0.675465
