%chk=/home/boittier/MDCM/nms_sampling/cyanomethane_geom.xyz.dir/cyanomethane_2622.chk
%nproc=8
%mem=16000MB
#p B2PLYPD3/Def2QZVP 

cyanomethane

0 1
C  -6.595115  -1.111715   1.149030
C  -5.201024  -0.750705   0.925319
N  -4.085108  -0.559244   0.696054
H  -6.884043  -1.346820   2.241619
H  -6.844611  -1.980616   0.633844
H  -7.290861  -0.451062   0.873693
