%chk=/home/boittier/MDCM/nms_sampling/cyanomethane_geom.xyz.dir/cyanomethane_24.chk
%nproc=8
%mem=16000MB
#p B2PLYPD3/Def2QZVP 

cyanomethane

0 1
C  -6.590340  -1.118325   1.171984
C  -5.203310  -0.772418   0.897226
N  -4.098274  -0.548408   0.705540
H  -6.729629  -1.230226   2.218818
H  -6.851806  -2.038025   0.679651
H  -7.281442  -0.350592   0.793939

