%chk=/home/boittier/MDCM/nms_sampling/cyanomethane_geom.xyz.dir/cyanomethane_1918.chk
%nproc=8
%mem=16000MB
#p B2PLYPD3/Def2QZVP 

cyanomethane

0 1
C  -6.598261  -1.115880   1.154879
C  -5.203692  -0.814761   0.919876
N  -4.093803  -0.521668   0.696574
H  -6.742460  -1.203192   2.237854
H  -6.927006  -2.026193   0.704354
H  -7.155213  -0.279476   0.827474

