%chk=/home/boittier/MDCM/nms_sampling/cyanomethane_geom.xyz.dir/cyanomethane_3142.chk
%nproc=8
%mem=16000MB
#p B2PLYPD3/Def2QZVP 

cyanomethane

0 1
C  -6.588438  -1.101344   1.160339
C  -5.205133  -0.744304   0.888991
N  -4.107188  -0.567197   0.712375
H  -6.728715  -1.382291   2.250814
H  -6.713262  -2.142539   0.678936
H  -7.295087  -0.357980   0.890872

