%chk=/home/boittier/MDCM/nms_sampling/cyanomethane_geom.xyz.dir/cyanomethane_782.chk
%nproc=8
%mem=16000MB
#p B2PLYPD3/Def2QZVP 

cyanomethane

0 1
C  -6.597909  -1.121149   1.171494
C  -5.203089  -0.775219   0.906379
N  -4.096619  -0.545443   0.702290
H  -6.737697  -1.225696   2.239411
H  -6.838221  -2.061935   0.642476
H  -7.221841  -0.300542   0.765701

