%chk=/home/boittier/MDCM/nms_sampling/cyanomethane_geom.xyz.dir/cyanomethane_224.chk
%nproc=8
%mem=16000MB
#p B2PLYPD3/Def2QZVP 

cyanomethane

0 1
C  -6.591576  -1.117844   1.164504
C  -5.203875  -0.800533   0.908988
N  -4.095728  -0.529745   0.702159
H  -6.780855  -1.231703   2.253083
H  -6.913143  -2.005552   0.643570
H  -7.183606  -0.302211   0.809771

