%chk=/home/boittier/MDCM/nms_sampling/cyanomethane_geom.xyz.dir/cyanomethane_3459.chk
%nproc=8
%mem=16000MB
#p B2PLYPD3/Def2QZVP 

cyanomethane

0 1
C  -6.591486  -1.139190   1.171195
C  -5.213617  -0.760658   0.946472
N  -4.102814  -0.552330   0.674450
H  -6.518163  -1.150917   2.148222
H  -6.865868  -2.040654   0.670525
H  -7.275684  -0.257341   0.730880

