%chk=/home/boittier/MDCM/nms_sampling/cyanomethane_geom.xyz.dir/cyanomethane_1701.chk
%nproc=8
%mem=16000MB
#p B2PLYPD3/Def2QZVP 

cyanomethane

0 1
C  -6.600558  -1.108399   1.172112
C  -5.204013  -0.818563   0.897892
N  -4.091103  -0.520570   0.706052
H  -6.721484  -1.250403   2.245944
H  -6.937413  -2.055489   0.641259
H  -7.171603  -0.259976   0.813788
