%chk=/home/boittier/MDCM/nms_sampling/cyanomethane_geom.xyz.dir/cyanomethane_1328.chk
%nproc=8
%mem=16000MB
#p B2PLYPD3/Def2QZVP 

cyanomethane

0 1
C  -6.608791  -1.097817   1.171242
C  -5.202093  -0.797288   0.872952
N  -4.087960  -0.536464   0.721073
H  -6.768727  -1.308656   2.263967
H  -6.811334  -2.082157   0.668729
H  -7.218784  -0.339868   0.851044

