%chk=/home/boittier/MDCM/nms_sampling/cyanomethane_geom.xyz.dir/cyanomethane_1753.chk
%nproc=8
%mem=16000MB
#p B2PLYPD3/Def2QZVP 

cyanomethane

0 1
C  -6.605186  -1.130519   1.167492
C  -5.195075  -0.764473   0.917552
N  -4.088752  -0.548799   0.697590
H  -6.802734  -1.215854   2.260394
H  -6.892713  -2.037230   0.617337
H  -7.222155  -0.300064   0.751279
