%chk=/home/boittier/MDCM/nms_sampling/cyanomethane_geom.xyz.dir/cyanomethane_22.chk
%nproc=8
%mem=16000MB
#p B2PLYPD3/Def2QZVP 

cyanomethane

0 1
C  -6.605022  -1.105103   1.163696
C  -5.200859  -0.797041   0.924350
N  -4.089813  -0.535024   0.693224
H  -6.737538  -1.274441   2.199895
H  -6.854131  -2.060993   0.644527
H  -7.241989  -0.316671   0.808390

