%chk=/home/boittier/MDCM/nms_sampling/cyanomethane_geom.xyz.dir/cyanomethane_411.chk
%nproc=8
%mem=16000MB
#p B2PLYPD3/Def2QZVP 

cyanomethane

0 1
C  -6.603964  -1.109454   1.160495
C  -5.200997  -0.808769   0.910821
N  -4.089559  -0.528774   0.701890
H  -6.776928  -1.200846   2.237595
H  -6.848978  -2.030337   0.700628
H  -7.223717  -0.333471   0.795565

