%chk=/home/boittier/MDCM/nms_sampling/cyanomethane_geom.xyz.dir/cyanomethane_488.chk
%nproc=8
%mem=16000MB
#p B2PLYPD3/Def2QZVP 

cyanomethane

0 1
C  -6.600431  -1.112185   1.157527
C  -5.203816  -0.794644   0.933937
N  -4.094059  -0.535879   0.690059
H  -6.755011  -1.236857   2.239811
H  -6.820050  -2.048296   0.639420
H  -7.220640  -0.301797   0.782966

