%chk=/home/boittier/MDCM/nms_sampling/cyanomethane_geom.xyz.dir/cyanomethane_2734.chk
%nproc=8
%mem=16000MB
#p B2PLYPD3/Def2QZVP 

cyanomethane

0 1
C  -6.592510  -1.126033   1.144685
C  -5.203570  -0.764834   0.973673
N  -4.107054  -0.546980   0.662656
H  -6.563668  -1.202705   2.151377
H  -6.953181  -2.002090   0.734034
H  -7.193684  -0.409940   0.799822

