%chk=/home/boittier/MDCM/nms_sampling/cyanomethane_geom.xyz.dir/cyanomethane_1196.chk
%nproc=8
%mem=16000MB
#p B2PLYPD3/Def2QZVP 

cyanomethane

0 1
C  -6.598603  -1.112052   1.166039
C  -5.200328  -0.810597   0.907825
N  -4.089635  -0.526201   0.703460
H  -6.809823  -1.192566   2.251180
H  -6.901368  -2.039343   0.672266
H  -7.210249  -0.315001   0.765740

