%chk=/home/boittier/MDCM/nms_sampling/cyanomethane_geom.xyz.dir/cyanomethane_1054.chk
%nproc=8
%mem=16000MB
#p B2PLYPD3/Def2QZVP 

cyanomethane

0 1
C  -6.596543  -1.109289   1.171389
C  -5.202678  -0.797222   0.885795
N  -4.097267  -0.536336   0.714625
H  -6.776381  -1.244566   2.236065
H  -6.795545  -2.060110   0.673032
H  -7.237528  -0.295983   0.815925
