%chk=/home/boittier/MDCM/nms_sampling/cyanomethane_geom.xyz.dir/cyanomethane_3218.chk
%nproc=8
%mem=16000MB
#p B2PLYPD3/Def2QZVP 

cyanomethane

0 1
C  -6.602233  -1.112945   1.147459
C  -5.197370  -0.835387   0.935526
N  -4.080646  -0.508148   0.686514
H  -6.762297  -1.170828   2.178636
H  -7.094563  -1.965533   0.770571
H  -7.179514  -0.348224   0.851685
