%chk=/home/boittier/MDCM/nms_sampling/cyanomethane_geom.xyz.dir/cyanomethane_1511.chk
%nproc=8
%mem=16000MB
#p B2PLYPD3/Def2QZVP 

cyanomethane

0 1
C  -6.607706  -1.110392   1.156661
C  -5.199666  -0.775065   0.938107
N  -4.088030  -0.545917   0.686559
H  -6.749339  -1.288492   2.187398
H  -6.848504  -2.059690   0.651562
H  -7.242650  -0.345192   0.816288

