%chk=/home/boittier/MDCM/nms_sampling/cyanomethane_geom.xyz.dir/cyanomethane_2322.chk
%nproc=8
%mem=16000MB
#p B2PLYPD3/Def2QZVP 

cyanomethane

0 1
C  -6.592537  -1.126072   1.162751
C  -5.207593  -0.749279   0.904507
N  -4.098580  -0.558108   0.705500
H  -6.784708  -1.233991   2.266875
H  -6.816082  -2.078951   0.676161
H  -7.180180  -0.350719   0.774714

