%chk=/home/boittier/MDCM/nms_sampling/cyanomethane_geom.xyz.dir/cyanomethane_868.chk
%nproc=8
%mem=16000MB
#p B2PLYPD3/Def2QZVP 

cyanomethane

0 1
C  -6.599869  -1.110263   1.162316
C  -5.201535  -0.808934   0.909843
N  -4.090903  -0.527621   0.703530
H  -6.816895  -1.226309   2.241007
H  -6.856514  -2.023866   0.662321
H  -7.200278  -0.312346   0.803100
