%chk=/home/boittier/MDCM/nms_sampling/cyanomethane_geom.xyz.dir/cyanomethane_2861.chk
%nproc=8
%mem=16000MB
#p B2PLYPD3/Def2QZVP 

cyanomethane

0 1
C  -6.619527  -1.105233   1.158064
C  -5.188189  -0.787871   0.971782
N  -4.083604  -0.545324   0.666762
H  -6.685238  -1.239554   2.170765
H  -6.782037  -2.102464   0.619222
H  -7.432348  -0.270994   0.738313

