%chk=/home/boittier/MDCM/nms_sampling/cyanomethane_geom.xyz.dir/cyanomethane_185.chk
%nproc=8
%mem=16000MB
#p B2PLYPD3/Def2QZVP 

cyanomethane

0 1
C  -6.595662  -1.110625   1.165666
C  -5.198952  -0.792165   0.915354
N  -4.093005  -0.539001   0.697486
H  -6.761333  -1.206525   2.225564
H  -6.859719  -2.056990   0.684212
H  -7.305032  -0.341954   0.764900

