%chk=/home/boittier/MDCM/nms_sampling/cyanomethane_geom.xyz.dir/cyanomethane_2216.chk
%nproc=8
%mem=16000MB
#p B2PLYPD3/Def2QZVP 

cyanomethane

0 1
C  -6.606721  -1.099488   1.163018
C  -5.196387  -0.791083   0.940590
N  -4.089960  -0.540110   0.683669
H  -6.709345  -1.289497   2.216994
H  -6.848091  -2.112238   0.615880
H  -7.308391  -0.312832   0.770243

