%chk=/home/boittier/MDCM/nms_sampling/cyanomethane_geom.xyz.dir/cyanomethane_2851.chk
%nproc=8
%mem=16000MB
#p B2PLYPD3/Def2QZVP 

cyanomethane

0 1
C  -6.591794  -1.118979   1.163940
C  -5.203322  -0.822949   0.908503
N  -4.107784  -0.512427   0.702621
H  -6.723541  -1.230158   2.291513
H  -6.982944  -2.017043   0.623550
H  -7.005889  -0.246639   0.812299
