%chk=/home/boittier/MDCM/nms_sampling/cyanomethane_geom.xyz.dir/cyanomethane_203.chk
%nproc=8
%mem=16000MB
#p B2PLYPD3/Def2QZVP 

cyanomethane

0 1
C  -6.606177  -1.113581   1.159526
C  -5.199358  -0.791978   0.930756
N  -4.089281  -0.536773   0.691479
H  -6.771179  -1.222204   2.247459
H  -6.850765  -2.060749   0.646372
H  -7.225069  -0.310035   0.762703
