%chk=/home/boittier/MDCM/nms_sampling/cyanomethane_geom.xyz.dir/cyanomethane_3174.chk
%nproc=8
%mem=16000MB
#p B2PLYPD3/Def2QZVP 

cyanomethane

0 1
C  -6.573545  -1.097441   1.171344
C  -5.212054  -0.848268   0.892519
N  -4.101339  -0.506550   0.712215
H  -6.822914  -1.285542   2.260831
H  -6.905488  -2.008211   0.592280
H  -7.189385  -0.237946   0.850235

