%chk=/home/boittier/MDCM/nms_sampling/cyanomethane_geom.xyz.dir/cyanomethane_1008.chk
%nproc=8
%mem=16000MB
#p B2PLYPD3/Def2QZVP 

cyanomethane

0 1
C  -6.601157  -1.103616   1.165232
C  -5.200201  -0.793417   0.917514
N  -4.089349  -0.537750   0.696542
H  -6.753075  -1.267556   2.245813
H  -6.866791  -2.066159   0.638441
H  -7.276371  -0.346285   0.784846
