%chk=/home/boittier/MDCM/nms_sampling/cyanomethane_geom.xyz.dir/cyanomethane_2083.chk
%nproc=8
%mem=16000MB
#p B2PLYPD3/Def2QZVP 

cyanomethane

0 1
C  -6.593738  -1.110840   1.165629
C  -5.198838  -0.792655   0.882605
N  -4.093432  -0.539610   0.718070
H  -6.861665  -1.187503   2.278750
H  -6.807536  -2.036107   0.719906
H  -7.276807  -0.380400   0.779204

