%chk=/home/boittier/MDCM/nms_sampling/cyanomethane_geom.xyz.dir/cyanomethane_84.chk
%nproc=8
%mem=16000MB
#p B2PLYPD3/Def2QZVP 

cyanomethane

0 1
C  -6.588146  -1.112345   1.159071
C  -5.202481  -0.792299   0.932004
N  -4.099256  -0.538071   0.689881
H  -6.762594  -1.210474   2.236358
H  -6.847565  -2.032149   0.661880
H  -7.277894  -0.346044   0.764703
