%chk=/home/boittier/MDCM/nms_sampling/cyanomethane_geom.xyz.dir/cyanomethane_588.chk
%nproc=8
%mem=16000MB
#p B2PLYPD3/Def2QZVP 

cyanomethane

0 1
C  -6.591433  -1.108384   1.162571
C  -5.203854  -0.812608   0.904347
N  -4.095026  -0.526229   0.704813
H  -6.780606  -1.228494   2.239407
H  -6.878332  -2.030321   0.684289
H  -7.229856  -0.304915   0.823612
