%chk=/home/boittier/MDCM/nms_sampling/cyanomethane_geom.xyz.dir/cyanomethane_2890.chk
%nproc=8
%mem=16000MB
#p B2PLYPD3/Def2QZVP 

cyanomethane

0 1
C  -6.602544  -1.110090   1.170129
C  -5.189478  -0.786432   0.896985
N  -4.084545  -0.548301   0.708591
H  -6.848519  -1.195097   2.248148
H  -6.752715  -2.052872   0.677363
H  -7.475527  -0.316942   0.763210
