%chk=/home/boittier/MDCM/nms_sampling/cyanomethane_geom.xyz.dir/cyanomethane_2427.chk
%nproc=8
%mem=16000MB
#p B2PLYPD3/Def2QZVP 

cyanomethane

0 1
C  -6.607715  -1.121379   1.176384
C  -5.198964  -0.780116   0.951889
N  -4.080563  -0.545443   0.672018
H  -6.634101  -1.150662   2.162891
H  -6.917103  -1.991905   0.626900
H  -7.405764  -0.381554   0.670371

