%chk=/home/boittier/MDCM/nms_sampling/cyanomethane_geom.xyz.dir/cyanomethane_828.chk
%nproc=8
%mem=16000MB
#p B2PLYPD3/Def2QZVP 

cyanomethane

0 1
C  -6.598146  -1.106691   1.168657
C  -5.201705  -0.793974   0.909416
N  -4.096345  -0.536397   0.700763
H  -6.735686  -1.261459   2.216996
H  -6.855519  -2.077789   0.655177
H  -7.223605  -0.318336   0.794623
