%chk=/home/boittier/MDCM/nms_sampling/cyanomethane_geom.xyz.dir/cyanomethane_227.chk
%nproc=8
%mem=16000MB
#p B2PLYPD3/Def2QZVP 

cyanomethane

0 1
C  -6.607219  -1.111567   1.172176
C  -5.200300  -0.797146   0.882664
N  -4.089492  -0.535482   0.715048
H  -6.754844  -1.238069   2.245591
H  -6.829545  -2.027702   0.675384
H  -7.234287  -0.321759   0.821376
