%chk=/home/boittier/MDCM/nms_sampling/cyanomethane_geom.xyz.dir/cyanomethane_1940.chk
%nproc=8
%mem=16000MB
#p B2PLYPD3/Def2QZVP 

cyanomethane

0 1
C  -6.606512  -1.116113   1.175669
C  -5.198169  -0.764167   0.881872
N  -4.086048  -0.551981   0.711964
H  -6.715035  -1.261524   2.209117
H  -6.903156  -2.075994   0.703922
H  -7.280257  -0.357743   0.820384
