%chk=/home/boittier/MDCM/nms_sampling/cyanomethane_geom.xyz.dir/cyanomethane_548.chk
%nproc=8
%mem=16000MB
#p B2PLYPD3/Def2QZVP 

cyanomethane

0 1
C  -6.594321  -1.120778   1.173716
C  -5.203778  -0.778915   0.904251
N  -4.093750  -0.544070   0.702806
H  -6.754070  -1.204281   2.231332
H  -6.860549  -2.040763   0.653056
H  -7.258877  -0.326774   0.752940
