%chk=/home/boittier/MDCM/nms_sampling/cyanomethane_geom.xyz.dir/cyanomethane_2372.chk
%nproc=8
%mem=16000MB
#p B2PLYPD3/Def2QZVP 

cyanomethane

0 1
C  -6.598259  -1.107026   1.166705
C  -5.195745  -0.783542   0.932922
N  -4.089065  -0.541300   0.687216
H  -6.759503  -1.299061   2.206116
H  -6.930102  -2.057603   0.600025
H  -7.298352  -0.337772   0.788993
