%chk=/home/boittier/MDCM/nms_sampling/cyanomethane_geom.xyz.dir/cyanomethane_3348.chk
%nproc=8
%mem=16000MB
#p B2PLYPD3/Def2QZVP 

cyanomethane

0 1
C  -6.574764  -1.109359   1.160957
C  -5.213215  -0.786835   0.954486
N  -4.101407  -0.546193   0.677419
H  -6.744035  -1.178094   2.198308
H  -6.744627  -2.013588   0.643106
H  -7.404058  -0.385565   0.703206

