%chk=/home/boittier/MDCM/nms_sampling/cyanomethane_geom.xyz.dir/cyanomethane_2606.chk
%nproc=8
%mem=16000MB
#p B2PLYPD3/Def2QZVP 

cyanomethane

0 1
C  -6.611886  -1.109531   1.175082
C  -5.189166  -0.856464   0.906111
N  -4.083910  -0.500386   0.704952
H  -6.846876  -1.100887   2.272421
H  -6.968604  -1.998996   0.650607
H  -7.163291  -0.298839   0.683784
