%chk=/home/boittier/MDCM/nms_sampling/cyanomethane_geom.xyz.dir/cyanomethane_2180.chk
%nproc=8
%mem=16000MB
#p B2PLYPD3/Def2QZVP 

cyanomethane

0 1
C  -6.597267  -1.121810   1.176478
C  -5.207225  -0.757652   0.902148
N  -4.097191  -0.555380   0.700581
H  -6.644309  -1.249122   2.202904
H  -6.845543  -2.043941   0.655726
H  -7.256998  -0.357172   0.784532

