%chk=/home/boittier/MDCM/nms_sampling/cyanomethane_geom.xyz.dir/cyanomethane_1186.chk
%nproc=8
%mem=16000MB
#p B2PLYPD3/Def2QZVP 

cyanomethane

0 1
C  -6.606286  -1.113993   1.158617
C  -5.201084  -0.772562   0.909783
N  -4.089660  -0.548524   0.702083
H  -6.766984  -1.252876   2.231061
H  -6.804992  -2.045592   0.695257
H  -7.246326  -0.363254   0.823098
