%chk=/home/boittier/MDCM/nms_sampling/cyanomethane_geom.xyz.dir/cyanomethane_2319.chk
%nproc=8
%mem=16000MB
#p B2PLYPD3/Def2QZVP 

cyanomethane

0 1
C  -6.596055  -1.101646   1.172276
C  -5.204817  -0.801261   0.868120
N  -4.097323  -0.534650   0.723157
H  -6.760940  -1.266589   2.247859
H  -6.803919  -2.043410   0.700808
H  -7.224207  -0.360911   0.847640

