%chk=/home/boittier/MDCM/nms_sampling/cyanomethane_geom.xyz.dir/cyanomethane_2247.chk
%nproc=8
%mem=16000MB
#p B2PLYPD3/Def2QZVP 

cyanomethane

0 1
C  -6.613835  -1.114943   1.153253
C  -5.194658  -0.769483   0.914241
N  -4.088380  -0.549122   0.701291
H  -6.792493  -1.293256   2.267310
H  -6.804453  -2.050927   0.657995
H  -7.225714  -0.326136   0.850914
