%chk=/home/boittier/MDCM/nms_sampling/cyanomethane_geom.xyz.dir/cyanomethane_2218.chk
%nproc=8
%mem=16000MB
#p B2PLYPD3/Def2QZVP 

cyanomethane

0 1
C  -6.610248  -1.108426   1.180947
C  -5.198261  -0.782888   0.870032
N  -4.091934  -0.541841   0.720285
H  -6.728149  -1.285071   2.246126
H  -6.852066  -2.077091   0.652509
H  -7.191247  -0.339725   0.812588

