%chk=/home/boittier/MDCM/nms_sampling/cyanomethane_geom.xyz.dir/cyanomethane_3367.chk
%nproc=8
%mem=16000MB
#p B2PLYPD3/Def2QZVP 

cyanomethane

0 1
C  -6.596906  -1.140890   1.168914
C  -5.192712  -0.739040   0.882860
N  -4.089766  -0.564268   0.714874
H  -6.850219  -1.155020   2.206463
H  -6.877911  -1.997815   0.758663
H  -7.301642  -0.391237   0.789020

