%chk=/home/boittier/MDCM/nms_sampling/cyanomethane_geom.xyz.dir/cyanomethane_699.chk
%nproc=8
%mem=16000MB
#p B2PLYPD3/Def2QZVP 

cyanomethane

0 1
C  -6.598381  -1.113413   1.157123
C  -5.203108  -0.786261   0.925231
N  -4.093393  -0.539529   0.693618
H  -6.751464  -1.251493   2.239898
H  -6.859753  -2.044903   0.661805
H  -7.226105  -0.326284   0.809692

