%chk=/home/boittier/MDCM/nms_sampling/cyanomethane_geom.xyz.dir/cyanomethane_1381.chk
%nproc=8
%mem=16000MB
#p B2PLYPD3/Def2QZVP 

cyanomethane

0 1
C  -6.589362  -1.104211   1.174871
C  -5.200254  -0.825614   0.896339
N  -4.097928  -0.521234   0.707388
H  -6.767096  -1.197411   2.250877
H  -6.876030  -2.007889   0.650739
H  -7.275912  -0.329053   0.765927

