%chk=/home/boittier/MDCM/nms_sampling/cyanomethane_geom.xyz.dir/cyanomethane_703.chk
%nproc=8
%mem=16000MB
#p B2PLYPD3/Def2QZVP 

cyanomethane

0 1
C  -6.600000  -1.120017   1.167664
C  -5.198520  -0.783618   0.922637
N  -4.091853  -0.540940   0.692783
H  -6.737031  -1.186620   2.225696
H  -6.895558  -2.040621   0.665273
H  -7.262786  -0.338278   0.738814
