%chk=/home/boittier/MDCM/nms_sampling/cyanomethane_geom.xyz.dir/cyanomethane_3075.chk
%nproc=8
%mem=16000MB
#p B2PLYPD3/Def2QZVP 

cyanomethane

0 1
C  -6.622876  -1.096421   1.154918
C  -5.193969  -0.798150   0.964183
N  -4.084532  -0.537928   0.667446
H  -6.574388  -1.291766   2.152285
H  -6.839081  -2.008305   0.647458
H  -7.363524  -0.390953   0.824067
