%chk=/home/boittier/MDCM/nms_sampling/cyanomethane_geom.xyz.dir/cyanomethane_1678.chk
%nproc=8
%mem=16000MB
#p B2PLYPD3/Def2QZVP 

cyanomethane

0 1
C  -6.599825  -1.128014   1.163778
C  -5.195077  -0.784037   0.879368
N  -4.089281  -0.538888   0.718054
H  -6.834727  -1.205887   2.254427
H  -6.913563  -1.993418   0.721457
H  -7.223993  -0.305841   0.857016

