%chk=/home/boittier/MDCM/nms_sampling/cyanomethane_geom.xyz.dir/cyanomethane_1761.chk
%nproc=8
%mem=16000MB
#p B2PLYPD3/Def2QZVP 

cyanomethane

0 1
C  -6.595473  -1.104524   1.164249
C  -5.200964  -0.792701   0.889574
N  -4.098116  -0.538163   0.715477
H  -6.843299  -1.261790   2.248693
H  -6.790569  -2.104836   0.690817
H  -7.197164  -0.316651   0.814111
