%chk=/home/boittier/MDCM/nms_sampling/cyanomethane_geom.xyz.dir/cyanomethane_1632.chk
%nproc=8
%mem=16000MB
#p B2PLYPD3/Def2QZVP 

cyanomethane

0 1
C  -6.596876  -1.127313   1.163037
C  -5.201336  -0.780678   0.934510
N  -4.098717  -0.540529   0.687967
H  -6.729051  -1.201350   2.205431
H  -6.871371  -2.052639   0.647283
H  -7.200776  -0.256504   0.764650
