%chk=/home/boittier/MDCM/nms_sampling/cyanomethane_geom.xyz.dir/cyanomethane_2724.chk
%nproc=8
%mem=16000MB
#p B2PLYPD3/Def2QZVP 

cyanomethane

0 1
C  -6.589645  -1.126996   1.177545
C  -5.213729  -0.805062   0.930123
N  -4.102644  -0.529115   0.684156
H  -6.549486  -1.093824   2.230076
H  -6.900845  -2.041594   0.660130
H  -7.235998  -0.265632   0.666324
