%chk=/home/boittier/MDCM/nms_sampling/cyanomethane_geom.xyz.dir/cyanomethane_1412.chk
%nproc=8
%mem=16000MB
#p B2PLYPD3/Def2QZVP 

cyanomethane

0 1
C  -6.596500  -1.110576   1.157836
C  -5.206841  -0.796452   0.938299
N  -4.097904  -0.536416   0.685886
H  -6.700894  -1.216091   2.166550
H  -6.799946  -2.026100   0.691130
H  -7.251014  -0.338408   0.795329

