%chk=/home/boittier/MDCM/nms_sampling/cyanomethane_geom.xyz.dir/cyanomethane_1887.chk
%nproc=8
%mem=16000MB
#p B2PLYPD3/Def2QZVP 

cyanomethane

0 1
C  -6.596054  -1.113087   1.148972
C  -5.202922  -0.786129   0.952379
N  -4.100176  -0.537893   0.679333
H  -6.706438  -1.271726   2.248778
H  -6.878664  -2.057176   0.632362
H  -7.188007  -0.308578   0.806246

