%chk=/home/boittier/MDCM/nms_sampling/cyanomethane_geom.xyz.dir/cyanomethane_722.chk
%nproc=8
%mem=16000MB
#p B2PLYPD3/Def2QZVP 

cyanomethane

0 1
C  -6.596708  -1.109132   1.167560
C  -5.201447  -0.793433   0.888546
N  -4.090533  -0.538196   0.711424
H  -6.763746  -1.243506   2.268954
H  -6.862022  -2.031249   0.682150
H  -7.291991  -0.347988   0.821918

