%chk=/home/boittier/MDCM/nms_sampling/cyanomethane_geom.xyz.dir/cyanomethane_1437.chk
%nproc=8
%mem=16000MB
#p B2PLYPD3/Def2QZVP 

cyanomethane

0 1
C  -6.611127  -1.121193   1.166684
C  -5.199539  -0.796964   0.933012
N  -4.086840  -0.534283   0.687338
H  -6.703371  -1.160089   2.176822
H  -6.862858  -2.033864   0.680099
H  -7.251699  -0.291365   0.742420
