%chk=/home/boittier/MDCM/nms_sampling/cyanomethane_geom.xyz.dir/cyanomethane_2425.chk
%nproc=8
%mem=16000MB
#p B2PLYPD3/Def2QZVP 

cyanomethane

0 1
C  -6.623316  -1.104511   1.162046
C  -5.192204  -0.794314   0.848326
N  -4.082178  -0.533916   0.739750
H  -6.919243  -1.316766   2.268157
H  -6.824832  -2.102007   0.736974
H  -7.076488  -0.308367   0.921964

