%chk=/home/boittier/MDCM/nms_sampling/cyanomethane_geom.xyz.dir/cyanomethane_3029.chk
%nproc=8
%mem=16000MB
#p B2PLYPD3/Def2QZVP 

cyanomethane

0 1
C  -6.599773  -1.126103   1.162544
C  -5.211362  -0.828811   0.916527
N  -4.099129  -0.510933   0.696803
H  -6.676367  -1.144235   2.159069
H  -6.930054  -1.898714   0.721022
H  -7.033731  -0.327861   0.829498

