%chk=/home/boittier/MDCM/nms_sampling/cyanomethane_geom.xyz.dir/cyanomethane_2437.chk
%nproc=8
%mem=16000MB
#p B2PLYPD3/Def2QZVP 

cyanomethane

0 1
C  -6.617779  -1.115339   1.184477
C  -5.192941  -0.725762   0.895678
N  -4.087022  -0.577649   0.709168
H  -6.805814  -1.301174   2.194381
H  -6.674722  -2.179045   0.599806
H  -7.333084  -0.316142   0.722899

