%chk=/home/boittier/MDCM/nms_sampling/cyanomethane_geom.xyz.dir/cyanomethane_3277.chk
%nproc=8
%mem=16000MB
#p B2PLYPD3/Def2QZVP 

cyanomethane

0 1
C  -6.622239  -1.095087   1.149859
C  -5.192572  -0.859895   0.937471
N  -4.087540  -0.497111   0.693444
H  -6.855733  -1.271601   2.204980
H  -6.873529  -1.983290   0.626633
H  -7.030115  -0.282565   0.855044

