%chk=/home/boittier/MDCM/nms_sampling/cyanomethane_geom.xyz.dir/cyanomethane_2824.chk
%nproc=8
%mem=16000MB
#p B2PLYPD3/Def2QZVP 

cyanomethane

0 1
C  -6.602372  -1.120301   1.144644
C  -5.198689  -0.755765   0.899849
N  -4.080858  -0.561448   0.712557
H  -6.942754  -1.159841   2.323675
H  -6.724773  -2.035065   0.778317
H  -7.353897  -0.438891   0.781037

