%chk=/home/boittier/MDCM/nms_sampling/cyanomethane_geom.xyz.dir/cyanomethane_2046.chk
%nproc=8
%mem=16000MB
#p B2PLYPD3/Def2QZVP 

cyanomethane

0 1
C  -6.588649  -1.109585   1.159160
C  -5.207573  -0.795512   0.894006
N  -4.098998  -0.534110   0.711861
H  -6.798811  -1.282916   2.298632
H  -6.850722  -2.035496   0.655913
H  -7.173029  -0.319705   0.854571

