%chk=/home/boittier/MDCM/nms_sampling/cyanomethane_geom.xyz.dir/cyanomethane_476.chk
%nproc=8
%mem=16000MB
#p B2PLYPD3/Def2QZVP 

cyanomethane

0 1
C  -6.599769  -1.115901   1.169406
C  -5.197472  -0.803951   0.911551
N  -4.091188  -0.529724   0.697396
H  -6.716134  -1.213918   2.213050
H  -6.937242  -2.002864   0.663358
H  -7.265403  -0.309484   0.801568
