%chk=/home/boittier/MDCM/nms_sampling/cyanomethane_geom.xyz.dir/cyanomethane_1501.chk
%nproc=8
%mem=16000MB
#p B2PLYPD3/Def2QZVP 

cyanomethane

0 1
C  -6.606009  -1.115848   1.160866
C  -5.199364  -0.806607   0.879942
N  -4.085727  -0.530626   0.719346
H  -6.832991  -1.203185   2.248843
H  -6.819008  -1.988758   0.733716
H  -7.244860  -0.307699   0.866611

