%chk=/home/boittier/MDCM/nms_sampling/cyanomethane_geom.xyz.dir/cyanomethane_342.chk
%nproc=8
%mem=16000MB
#p B2PLYPD3/Def2QZVP 

cyanomethane

0 1
C  -6.591288  -1.118468   1.170929
C  -5.205287  -0.791995   0.922118
N  -4.096942  -0.536625   0.692683
H  -6.715528  -1.188993   2.213548
H  -6.882975  -2.027505   0.649125
H  -7.249261  -0.325801   0.739592

