%chk=/home/boittier/MDCM/nms_sampling/cyanomethane_geom.xyz.dir/cyanomethane_645.chk
%nproc=8
%mem=16000MB
#p B2PLYPD3/Def2QZVP 

cyanomethane

0 1
C  -6.596334  -1.099844   1.166917
C  -5.202104  -0.813725   0.903020
N  -4.092253  -0.526364   0.704792
H  -6.769496  -1.262326   2.257936
H  -6.883829  -2.043099   0.647803
H  -7.237531  -0.339971   0.806560
