%chk=/home/boittier/MDCM/nms_sampling/cyanomethane_geom.xyz.dir/cyanomethane_52.chk
%nproc=8
%mem=16000MB
#p B2PLYPD3/Def2QZVP 

cyanomethane

0 1
C  -6.598394  -1.118049   1.163575
C  -5.200702  -0.770337   0.911201
N  -4.089362  -0.547805   0.700368
H  -6.788991  -1.260202   2.233577
H  -6.878541  -2.025621   0.655314
H  -7.254970  -0.358596   0.810726
