%chk=/home/boittier/MDCM/nms_sampling/cyanomethane_geom.xyz.dir/cyanomethane_221.chk
%nproc=8
%mem=16000MB
#p B2PLYPD3/Def2QZVP 

cyanomethane

0 1
C  -6.606443  -1.107169   1.165169
C  -5.197636  -0.794943   0.920894
N  -4.090821  -0.535903   0.694540
H  -6.729311  -1.275071   2.220028
H  -6.863994  -2.057168   0.632281
H  -7.248249  -0.308830   0.806580
