%chk=/home/boittier/MDCM/nms_sampling/cyanomethane_geom.xyz.dir/cyanomethane_1912.chk
%nproc=8
%mem=16000MB
#p B2PLYPD3/Def2QZVP 

cyanomethane

0 1
C  -6.601159  -1.104221   1.155485
C  -5.196575  -0.811918   0.930982
N  -4.089372  -0.527849   0.688797
H  -6.727574  -1.245240   2.252837
H  -6.903077  -1.991948   0.656310
H  -7.310054  -0.352405   0.821655

