%chk=/home/boittier/MDCM/nms_sampling/cyanomethane_geom.xyz.dir/cyanomethane_1053.chk
%nproc=8
%mem=16000MB
#p B2PLYPD3/Def2QZVP 

cyanomethane

0 1
C  -6.605879  -1.099729   1.168002
C  -5.198964  -0.815217   0.906056
N  -4.091108  -0.525536   0.702735
H  -6.738104  -1.262778   2.239402
H  -6.869428  -2.050440   0.647383
H  -7.221520  -0.325928   0.805979
