%chk=/home/boittier/MDCM/nms_sampling/cyanomethane_geom.xyz.dir/cyanomethane_1398.chk
%nproc=8
%mem=16000MB
#p B2PLYPD3/Def2QZVP 

cyanomethane

0 1
C  -6.593571  -1.120450   1.181309
C  -5.201789  -0.775285   0.902982
N  -4.099146  -0.545554   0.702641
H  -6.730188  -1.214961   2.231231
H  -6.861586  -2.076011   0.617849
H  -7.238994  -0.304310   0.720952
