%chk=/home/boittier/MDCM/nms_sampling/cyanomethane_geom.xyz.dir/cyanomethane_2356.chk
%nproc=8
%mem=16000MB
#p B2PLYPD3/Def2QZVP 

cyanomethane

0 1
C  -6.612765  -1.103357   1.163610
C  -5.196643  -0.805947   0.885523
N  -4.089117  -0.529725   0.716398
H  -6.803053  -1.270069   2.270058
H  -6.832040  -2.049980   0.681202
H  -7.166234  -0.334815   0.843975

