%chk=/home/boittier/MDCM/nms_sampling/cyanomethane_geom.xyz.dir/cyanomethane_1972.chk
%nproc=8
%mem=16000MB
#p B2PLYPD3/Def2QZVP 

cyanomethane

0 1
C  -6.606807  -1.121510   1.171351
C  -5.196173  -0.823510   0.913856
N  -4.090894  -0.518181   0.698434
H  -6.751155  -1.117842   2.210662
H  -6.915425  -1.982927   0.683274
H  -7.188746  -0.297154   0.734064

