%chk=/home/boittier/MDCM/nms_sampling/cyanomethane_geom.xyz.dir/cyanomethane_2505.chk
%nproc=8
%mem=16000MB
#p B2PLYPD3/Def2QZVP 

cyanomethane

0 1
C  -6.603124  -1.142361   1.160206
C  -5.207381  -0.764551   0.867229
N  -4.091172  -0.546004   0.724066
H  -6.762957  -1.175796   2.243936
H  -6.891165  -1.999859   0.793907
H  -7.101018  -0.299980   0.885788
