%chk=/home/boittier/MDCM/nms_sampling/cyanomethane_geom.xyz.dir/cyanomethane_615.chk
%nproc=8
%mem=16000MB
#p B2PLYPD3/Def2QZVP 

cyanomethane

0 1
C  -6.598532  -1.113049   1.157378
C  -5.202424  -0.809599   0.918365
N  -4.097126  -0.526866   0.697464
H  -6.741533  -1.214920   2.226497
H  -6.857774  -1.999428   0.688899
H  -7.192348  -0.317269   0.825709

