%chk=/home/boittier/MDCM/nms_sampling/cyanomethane_geom.xyz.dir/cyanomethane_3527.chk
%nproc=8
%mem=16000MB
#p B2PLYPD3/Def2QZVP 

cyanomethane

0 1
C  -6.594845  -1.109572   1.179276
C  -5.195074  -0.759699   0.880639
N  -4.090516  -0.563087   0.715133
H  -6.804618  -1.264793   2.282108
H  -6.726492  -2.054549   0.619110
H  -7.488297  -0.358795   0.771537
