%chk=/home/boittier/MDCM/nms_sampling/cyanomethane_geom.xyz.dir/cyanomethane_2819.chk
%nproc=8
%mem=16000MB
#p B2PLYPD3/Def2QZVP 

cyanomethane

0 1
C  -6.594719  -1.102713   1.184107
C  -5.205209  -0.825522   0.875545
N  -4.102556  -0.521778   0.721032
H  -6.783731  -1.237465   2.222448
H  -6.758659  -2.092487   0.626748
H  -7.184170  -0.214944   0.781402
