%chk=/home/boittier/MDCM/nms_sampling/cyanomethane_geom.xyz.dir/cyanomethane_1399.chk
%nproc=8
%mem=16000MB
#p B2PLYPD3/Def2QZVP 

cyanomethane

0 1
C  -6.598144  -1.118784   1.158001
C  -5.201541  -0.772843   0.904976
N  -4.099100  -0.548465   0.706445
H  -6.800149  -1.202902   2.242498
H  -6.763834  -2.044142   0.720817
H  -7.215795  -0.364555   0.793904

