%chk=/home/boittier/MDCM/nms_sampling/cyanomethane_geom.xyz.dir/cyanomethane_4.chk
%nproc=8
%mem=16000MB
#p B2PLYPD3/Def2QZVP 

cyanomethane

0 1
C  -6.588654  -1.119442   1.162458
C  -5.202746  -0.772928   0.915487
N  -4.097584  -0.546163   0.698483
H  -6.783074  -1.257397   2.230527
H  -6.871871  -2.043543   0.651882
H  -7.244630  -0.317529   0.810950

