%chk=/home/boittier/MDCM/nms_sampling/cyanomethane_geom.xyz.dir/cyanomethane_3515.chk
%nproc=8
%mem=16000MB
#p B2PLYPD3/Def2QZVP 

cyanomethane

0 1
C  -6.595385  -1.121991   1.186188
C  -5.202819  -0.787861   0.850896
N  -4.106758  -0.539919   0.728579
H  -6.669215  -1.141629   2.204513
H  -6.826873  -2.088852   0.781016
H  -7.190134  -0.308850   0.772903

