%chk=/home/boittier/MDCM/nms_sampling/cyanomethane_geom.xyz.dir/cyanomethane_3030.chk
%nproc=8
%mem=16000MB
#p B2PLYPD3/Def2QZVP 

cyanomethane

0 1
C  -6.624499  -1.107807   1.166008
C  -5.199192  -0.826018   0.901959
N  -4.078687  -0.516599   0.701051
H  -6.629353  -1.206102   2.206585
H  -6.969022  -2.002770   0.730879
H  -7.175037  -0.338863   0.838974

