%chk=/home/boittier/MDCM/nms_sampling/cyanomethane_geom.xyz.dir/cyanomethane_2171.chk
%nproc=8
%mem=16000MB
#p B2PLYPD3/Def2QZVP 

cyanomethane

0 1
C  -6.614201  -1.100018   1.170056
C  -5.196154  -0.815300   0.913048
N  -4.087958  -0.526256   0.698602
H  -6.716825  -1.279526   2.239302
H  -6.844988  -2.040888   0.603915
H  -7.245314  -0.298619   0.803761
