%chk=/home/boittier/MDCM/nms_sampling/cyanomethane_geom.xyz.dir/cyanomethane_905.chk
%nproc=8
%mem=16000MB
#p B2PLYPD3/Def2QZVP 

cyanomethane

0 1
C  -6.605256  -1.111923   1.163432
C  -5.200290  -0.777634   0.905875
N  -4.091556  -0.546059   0.705349
H  -6.797443  -1.242262   2.255262
H  -6.789450  -2.083174   0.669950
H  -7.227546  -0.336919   0.780205
