%chk=/home/boittier/MDCM/nms_sampling/cyanomethane_geom.xyz.dir/cyanomethane_3589.chk
%nproc=8
%mem=16000MB
#p B2PLYPD3/Def2QZVP 

cyanomethane

0 1
C  -6.600827  -1.126224   1.195646
C  -5.192869  -0.807176   0.845138
N  -4.086388  -0.527707   0.733913
H  -6.854853  -1.111178   2.278034
H  -6.941898  -1.996553   0.674402
H  -7.233605  -0.319536   0.709335
