%chk=/home/boittier/MDCM/nms_sampling/cyanomethane_geom.xyz.dir/cyanomethane_1755.chk
%nproc=8
%mem=16000MB
#p B2PLYPD3/Def2QZVP 

cyanomethane

0 1
C  -6.595736  -1.125104   1.158626
C  -5.205416  -0.775001   0.946891
N  -4.097053  -0.542624   0.681742
H  -6.721051  -1.218614   2.212773
H  -6.889358  -2.093420   0.642760
H  -7.178318  -0.256906   0.753785
