%chk=/home/boittier/MDCM/nms_sampling/cyanomethane_geom.xyz.dir/cyanomethane_1030.chk
%nproc=8
%mem=16000MB
#p B2PLYPD3/Def2QZVP 

cyanomethane

0 1
C  -6.587427  -1.102758   1.165624
C  -5.205650  -0.818662   0.910100
N  -4.097047  -0.523960   0.700321
H  -6.747162  -1.224259   2.219013
H  -6.887827  -2.032640   0.682988
H  -7.252725  -0.332336   0.801861

