%chk=/home/boittier/MDCM/nms_sampling/cyanomethane_geom.xyz.dir/cyanomethane_1007.chk
%nproc=8
%mem=16000MB
#p B2PLYPD3/Def2QZVP 

cyanomethane

0 1
C  -6.602084  -1.121806   1.167102
C  -5.201753  -0.776107   0.904579
N  -4.090921  -0.544984   0.703586
H  -6.760602  -1.202419   2.226631
H  -6.852490  -2.039483   0.690615
H  -7.230110  -0.339934   0.778459
