%chk=/home/boittier/MDCM/nms_sampling/cyanomethane_geom.xyz.dir/cyanomethane_2022.chk
%nproc=8
%mem=16000MB
#p B2PLYPD3/Def2QZVP 

cyanomethane

0 1
C  -6.596735  -1.109667   1.150070
C  -5.200380  -0.796589   0.950321
N  -4.088660  -0.536069   0.679946
H  -6.762286  -1.223505   2.212897
H  -6.875170  -1.989069   0.672026
H  -7.320971  -0.377663   0.797975
