%chk=/home/boittier/MDCM/nms_sampling/cyanomethane_geom.xyz.dir/cyanomethane_2503.chk
%nproc=8
%mem=16000MB
#p B2PLYPD3/Def2QZVP 

cyanomethane

0 1
C  -6.614416  -1.120703   1.178964
C  -5.201169  -0.764547   0.885423
N  -4.086715  -0.553397   0.709501
H  -6.647705  -1.213383   2.210704
H  -6.827228  -2.109564   0.707876
H  -7.282653  -0.301422   0.775863

