%chk=/home/boittier/MDCM/nms_sampling/cyanomethane_geom.xyz.dir/cyanomethane_1235.chk
%nproc=8
%mem=16000MB
#p B2PLYPD3/Def2QZVP 

cyanomethane

0 1
C  -6.611187  -1.116103   1.171600
C  -5.200766  -0.817941   0.918105
N  -4.085482  -0.522043   0.694950
H  -6.707132  -1.147942   2.184627
H  -6.908548  -2.032750   0.691989
H  -7.205480  -0.290488   0.742019
