%chk=/home/boittier/MDCM/nms_sampling/cyanomethane_geom.xyz.dir/cyanomethane_2759.chk
%nproc=8
%mem=16000MB
#p B2PLYPD3/Def2QZVP 

cyanomethane

0 1
C  -6.574750  -1.102747   1.157538
C  -5.208292  -0.815435   0.879824
N  -4.100785  -0.523110   0.723034
H  -6.943585  -1.294149   2.299122
H  -6.868165  -1.966284   0.657354
H  -7.146376  -0.374686   0.888165

