%chk=/home/boittier/MDCM/nms_sampling/cyanomethane_geom.xyz.dir/cyanomethane_1614.chk
%nproc=8
%mem=16000MB
#p B2PLYPD3/Def2QZVP 

cyanomethane

0 1
C  -6.582037  -1.102468   1.178466
C  -5.204112  -0.805434   0.866207
N  -4.102777  -0.533875   0.725447
H  -6.830922  -1.239936   2.239681
H  -6.787870  -2.068442   0.681777
H  -7.271664  -0.318128   0.804311
