%chk=/home/boittier/MDCM/nms_sampling/cyanomethane_geom.xyz.dir/cyanomethane_1889.chk
%nproc=8
%mem=16000MB
#p B2PLYPD3/Def2QZVP 

cyanomethane

0 1
C  -6.581204  -1.101340   1.156140
C  -5.202557  -0.824010   0.921893
N  -4.102181  -0.519267   0.698511
H  -6.851765  -1.268114   2.222677
H  -6.883130  -2.021268   0.648810
H  -7.193421  -0.304460   0.838892
