%chk=/home/boittier/MDCM/nms_sampling/cyanomethane_geom.xyz.dir/cyanomethane_443.chk
%nproc=8
%mem=16000MB
#p B2PLYPD3/Def2QZVP 

cyanomethane

0 1
C  -6.592817  -1.110580   1.173759
C  -5.200493  -0.797916   0.882302
N  -4.095940  -0.535914   0.715299
H  -6.787664  -1.219270   2.227986
H  -6.840532  -2.032066   0.691560
H  -7.271672  -0.336495   0.804041
