%chk=/home/boittier/MDCM/nms_sampling/cyanomethane_geom.xyz.dir/cyanomethane_534.chk
%nproc=8
%mem=16000MB
#p B2PLYPD3/Def2QZVP 

cyanomethane

0 1
C  -6.595337  -1.116261   1.164365
C  -5.202164  -0.768838   0.905381
N  -4.098399  -0.549559   0.703813
H  -6.761169  -1.277388   2.237321
H  -6.818964  -2.050315   0.652638
H  -7.234552  -0.331880   0.823497
