%chk=/home/boittier/MDCM/nms_sampling/cyanomethane_geom.xyz.dir/cyanomethane_622.chk
%nproc=8
%mem=16000MB
#p B2PLYPD3/Def2QZVP 

cyanomethane

0 1
C  -6.590548  -1.120959   1.165767
C  -5.202495  -0.767323   0.908430
N  -4.098312  -0.548158   0.701655
H  -6.771548  -1.250171   2.244557
H  -6.886111  -2.046639   0.653962
H  -7.212339  -0.345164   0.792675
