%chk=/home/boittier/MDCM/nms_sampling/cyanomethane_geom.xyz.dir/cyanomethane_982.chk
%nproc=8
%mem=16000MB
#p B2PLYPD3/Def2QZVP 

cyanomethane

0 1
C  -6.592742  -1.109846   1.171925
C  -5.205569  -0.801803   0.887909
N  -4.096905  -0.533820   0.712658
H  -6.758557  -1.206500   2.257641
H  -6.822138  -2.058327   0.684361
H  -7.245994  -0.315241   0.780176

