%chk=/home/boittier/MDCM/nms_sampling/cyanomethane_geom.xyz.dir/cyanomethane_23.chk
%nproc=8
%mem=16000MB
#p B2PLYPD3/Def2QZVP 

cyanomethane

0 1
C  -6.599665  -1.113519   1.167906
C  -5.199107  -0.778657   0.909535
N  -4.091626  -0.545908   0.701329
H  -6.777573  -1.243001   2.248449
H  -6.827771  -2.057984   0.641702
H  -7.290162  -0.329936   0.774215
