%chk=/home/boittier/MDCM/nms_sampling/cyanomethane_geom.xyz.dir/cyanomethane_189.chk
%nproc=8
%mem=16000MB
#p B2PLYPD3/Def2QZVP 

cyanomethane

0 1
C  -6.595957  -1.108480   1.167811
C  -5.205059  -0.802793   0.888449
N  -4.095961  -0.533020   0.711992
H  -6.738294  -1.227280   2.237445
H  -6.828306  -2.046117   0.705494
H  -7.239509  -0.319566   0.824441

