%chk=/home/boittier/MDCM/nms_sampling/cyanomethane_geom.xyz.dir/cyanomethane_3111.chk
%nproc=8
%mem=16000MB
#p B2PLYPD3/Def2QZVP 

cyanomethane

0 1
C  -6.577475  -1.092207   1.135635
C  -5.204760  -0.831766   0.948743
N  -4.102234  -0.514026   0.685397
H  -6.828630  -1.321982   2.345822
H  -6.935049  -2.014513   0.607200
H  -7.185628  -0.331773   0.866660
