%chk=/home/boittier/MDCM/nms_sampling/cyanomethane_geom.xyz.dir/cyanomethane_3040.chk
%nproc=8
%mem=16000MB
#p B2PLYPD3/Def2QZVP 

cyanomethane

0 1
C  -6.565769  -1.110789   1.155087
C  -5.205373  -0.839268   0.922339
N  -4.109937  -0.507158   0.695131
H  -6.781025  -1.240254   2.244216
H  -7.019433  -1.979060   0.655064
H  -7.170269  -0.248975   0.867863

