%chk=/home/boittier/MDCM/nms_sampling/cyanomethane_geom.xyz.dir/cyanomethane_2482.chk
%nproc=8
%mem=16000MB
#p B2PLYPD3/Def2QZVP 

cyanomethane

0 1
C  -6.600723  -1.108725   1.135500
C  -5.198754  -0.815837   0.937961
N  -4.078673  -0.524996   0.690125
H  -6.868388  -1.239209   2.219792
H  -6.894948  -1.932186   0.729226
H  -7.304800  -0.357497   0.911093
