%chk=/home/boittier/MDCM/nms_sampling/cyanomethane_geom.xyz.dir/cyanomethane_3346.chk
%nproc=8
%mem=16000MB
#p B2PLYPD3/Def2QZVP 

cyanomethane

0 1
C  -6.590156  -1.107236   1.174891
C  -5.202344  -0.855556   0.896375
N  -4.087713  -0.501626   0.706105
H  -6.767580  -1.166891   2.269636
H  -7.015900  -1.940967   0.642753
H  -7.243959  -0.305807   0.780890
