%chk=/home/boittier/MDCM/nms_sampling/cyanomethane_geom.xyz.dir/cyanomethane_3187.chk
%nproc=8
%mem=16000MB
#p B2PLYPD3/Def2QZVP 

cyanomethane

0 1
C  -6.590036  -1.103550   1.169168
C  -5.210717  -0.741757   0.898456
N  -4.105178  -0.571857   0.703461
H  -6.635855  -1.335467   2.117353
H  -6.658310  -2.094263   0.720564
H  -7.383512  -0.397485   0.874475

