%chk=/home/boittier/MDCM/nms_sampling/cyanomethane_geom.xyz.dir/cyanomethane_1038.chk
%nproc=8
%mem=16000MB
#p B2PLYPD3/Def2QZVP 

cyanomethane

0 1
C  -6.599009  -1.110320   1.167788
C  -5.201611  -0.786537   0.924586
N  -4.095460  -0.539564   0.691854
H  -6.710367  -1.254562   2.210500
H  -6.876849  -2.081095   0.639244
H  -7.231002  -0.318400   0.770065

