%chk=/home/boittier/MDCM/nms_sampling/cyanomethane_geom.xyz.dir/cyanomethane_1982.chk
%nproc=8
%mem=16000MB
#p B2PLYPD3/Def2QZVP 

cyanomethane

0 1
C  -6.600280  -1.127805   1.171529
C  -5.200083  -0.784234   0.875487
N  -4.093778  -0.541390   0.720480
H  -6.811739  -1.161601   2.230532
H  -6.810220  -2.025532   0.729546
H  -7.222001  -0.292785   0.799384

