%chk=/home/boittier/MDCM/nms_sampling/cyanomethane_geom.xyz.dir/cyanomethane_2558.chk
%nproc=8
%mem=16000MB
#p B2PLYPD3/Def2QZVP 

cyanomethane

0 1
C  -6.599921  -1.117696   1.147425
C  -5.190778  -0.787606   0.972837
N  -4.084791  -0.540629   0.669473
H  -6.837160  -1.169688   2.137594
H  -6.889549  -2.010433   0.702984
H  -7.361936  -0.358824   0.752905

