%chk=/home/boittier/MDCM/nms_sampling/cyanomethane_geom.xyz.dir/cyanomethane_2019.chk
%nproc=8
%mem=16000MB
#p B2PLYPD3/Def2QZVP 

cyanomethane

0 1
C  -6.599111  -1.101193   1.165192
C  -5.201056  -0.825195   0.919992
N  -4.099119  -0.518509   0.695484
H  -6.709727  -1.279587   2.214362
H  -6.883746  -2.042979   0.623512
H  -7.178714  -0.267583   0.830284
