%chk=/home/boittier/MDCM/nms_sampling/cyanomethane_geom.xyz.dir/cyanomethane_1016.chk
%nproc=8
%mem=16000MB
#p B2PLYPD3/Def2QZVP 

cyanomethane

0 1
C  -6.603586  -1.114299   1.172279
C  -5.200448  -0.798811   0.882438
N  -4.089946  -0.533834   0.714385
H  -6.748471  -1.229844   2.244993
H  -6.864082  -2.009896   0.678794
H  -7.241604  -0.318842   0.827972
