%chk=/home/boittier/MDCM/nms_sampling/cyanomethane_geom.xyz.dir/cyanomethane_220.chk
%nproc=8
%mem=16000MB
#p B2PLYPD3/Def2QZVP 

cyanomethane

0 1
C  -6.590376  -1.117000   1.172052
C  -5.204693  -0.788415   0.920748
N  -4.095950  -0.539473   0.693024
H  -6.719561  -1.197882   2.203202
H  -6.877745  -2.033959   0.651247
H  -7.282177  -0.331210   0.743254
