%chk=/home/boittier/MDCM/nms_sampling/cyanomethane_geom.xyz.dir/cyanomethane_2272.chk
%nproc=8
%mem=16000MB
#p B2PLYPD3/Def2QZVP 

cyanomethane

0 1
C  -6.592267  -1.116028   1.171794
C  -5.204035  -0.769085   0.886510
N  -4.100672  -0.549736   0.709759
H  -6.679614  -1.241082   2.227077
H  -6.863623  -2.036472   0.710299
H  -7.253741  -0.392995   0.815923
