%chk=/home/boittier/MDCM/nms_sampling/cyanomethane_geom.xyz.dir/cyanomethane_2613.chk
%nproc=8
%mem=16000MB
#p B2PLYPD3/Def2QZVP 

cyanomethane

0 1
C  -6.615988  -1.127663   1.159724
C  -5.190075  -0.811567   0.905093
N  -4.085575  -0.516743   0.705472
H  -6.812966  -1.254682   2.265138
H  -7.038771  -1.978912   0.631513
H  -7.037251  -0.228547   0.874545
