%chk=/home/boittier/MDCM/nms_sampling/cyanomethane_geom.xyz.dir/cyanomethane_3555.chk
%nproc=8
%mem=16000MB
#p B2PLYPD3/Def2QZVP 

cyanomethane

0 1
C  -6.615492  -1.123198   1.179429
C  -5.201740  -0.797576   0.862134
N  -4.085910  -0.530037   0.730998
H  -6.881406  -1.173767   2.236447
H  -6.835989  -2.117253   0.705475
H  -7.031490  -0.239041   0.757754

