%chk=/home/boittier/MDCM/nms_sampling/cyanomethane_geom.xyz.dir/cyanomethane_474.chk
%nproc=8
%mem=16000MB
#p B2PLYPD3/Def2QZVP 

cyanomethane

0 1
C  -6.605775  -1.109970   1.174462
C  -5.198651  -0.813030   0.903429
N  -4.092541  -0.525913   0.703269
H  -6.726123  -1.193319   2.224271
H  -6.875916  -2.043238   0.663583
H  -7.212057  -0.311260   0.754938

