%chk=/home/boittier/MDCM/nms_sampling/cyanomethane_geom.xyz.dir/cyanomethane_157.chk
%nproc=8
%mem=16000MB
#p B2PLYPD3/Def2QZVP 

cyanomethane

0 1
C  -6.606040  -1.120755   1.172340
C  -5.198886  -0.767241   0.899326
N  -4.090928  -0.549386   0.705182
H  -6.735649  -1.260705   2.234552
H  -6.858975  -2.058861   0.640778
H  -7.234403  -0.310718   0.798652
