%chk=/home/boittier/MDCM/nms_sampling/cyanomethane_geom.xyz.dir/cyanomethane_174.chk
%nproc=8
%mem=16000MB
#p B2PLYPD3/Def2QZVP 

cyanomethane

0 1
C  -6.593258  -1.112976   1.170963
C  -5.202773  -0.811926   0.908026
N  -4.094756  -0.525606   0.699878
H  -6.719292  -1.208768   2.238698
H  -6.924277  -2.003925   0.649194
H  -7.241041  -0.311910   0.785045

