%chk=/home/boittier/MDCM/nms_sampling/cyanomethane_geom.xyz.dir/cyanomethane_2943.chk
%nproc=8
%mem=16000MB
#p B2PLYPD3/Def2QZVP 

cyanomethane

0 1
C  -6.579000  -1.097860   1.177797
C  -5.209447  -0.860234   0.881912
N  -4.100161  -0.506331   0.716495
H  -6.789500  -1.155974   2.223600
H  -6.801901  -2.013651   0.687274
H  -7.309269  -0.248632   0.782303

