%chk=/home/boittier/MDCM/nms_sampling/cyanomethane_geom.xyz.dir/cyanomethane_346.chk
%nproc=8
%mem=16000MB
#p B2PLYPD3/Def2QZVP 

cyanomethane

0 1
C  -6.594435  -1.114278   1.174374
C  -5.200798  -0.795267   0.890917
N  -4.093642  -0.535557   0.711318
H  -6.803215  -1.220398   2.227028
H  -6.864948  -2.047602   0.664207
H  -7.240400  -0.306562   0.784280
