%chk=/home/boittier/MDCM/nms_sampling/cyanomethane_geom.xyz.dir/cyanomethane_3455.chk
%nproc=8
%mem=16000MB
#p B2PLYPD3/Def2QZVP 

cyanomethane

0 1
C  -6.614760  -1.103851   1.153349
C  -5.200768  -0.780615   0.894723
N  -4.085088  -0.546619   0.707762
H  -6.693989  -1.277294   2.179995
H  -6.798177  -2.062601   0.798803
H  -7.288076  -0.381298   0.915425
