%chk=/home/boittier/MDCM/nms_sampling/cyanomethane_geom.xyz.dir/cyanomethane_195.chk
%nproc=8
%mem=16000MB
#p B2PLYPD3/Def2QZVP 

cyanomethane

0 1
C  -6.598841  -1.113167   1.158069
C  -5.200835  -0.776750   0.905926
N  -4.095524  -0.546026   0.704202
H  -6.770236  -1.258420   2.226934
H  -6.817174  -2.057845   0.706366
H  -7.240586  -0.340724   0.840435

