%chk=/home/boittier/MDCM/nms_sampling/cyanomethane_geom.xyz.dir/cyanomethane_1598.chk
%nproc=8
%mem=16000MB
#p B2PLYPD3/Def2QZVP 

cyanomethane

0 1
C  -6.599228  -1.115466   1.180959
C  -5.197076  -0.786599   0.882548
N  -4.088668  -0.538868   0.713648
H  -6.790631  -1.248569   2.222114
H  -6.925629  -2.039026   0.643529
H  -7.248365  -0.326464   0.792371

