%chk=/home/boittier/MDCM/nms_sampling/cyanomethane_geom.xyz.dir/cyanomethane_1415.chk
%nproc=8
%mem=16000MB
#p B2PLYPD3/Def2QZVP 

cyanomethane

0 1
C  -6.590306  -1.105947   1.169185
C  -5.202646  -0.804738   0.878681
N  -4.091173  -0.533340   0.717010
H  -6.790248  -1.225057   2.266622
H  -6.863559  -2.048724   0.708320
H  -7.317011  -0.327479   0.822827
