%chk=/home/boittier/MDCM/nms_sampling/cyanomethane_geom.xyz.dir/cyanomethane_1431.chk
%nproc=8
%mem=16000MB
#p B2PLYPD3/Def2QZVP 

cyanomethane

0 1
C  -6.588389  -1.128161   1.169636
C  -5.205875  -0.771120   0.929309
N  -4.096759  -0.547651   0.688959
H  -6.732894  -1.162794   2.195990
H  -6.869047  -2.015705   0.661414
H  -7.276482  -0.345703   0.718845

