%chk=/home/boittier/MDCM/nms_sampling/cyanomethane_geom.xyz.dir/cyanomethane_3095.chk
%nproc=8
%mem=16000MB
#p B2PLYPD3/Def2QZVP 

cyanomethane

0 1
C  -6.566409  -1.104707   1.188834
C  -5.213038  -0.847719   0.902929
N  -4.102558  -0.504288   0.701706
H  -6.757179  -1.211131   2.167962
H  -7.025551  -2.005716   0.596510
H  -7.191461  -0.268437   0.750830
