%chk=/home/boittier/MDCM/nms_sampling/cyanomethane_geom.xyz.dir/cyanomethane_2143.chk
%nproc=8
%mem=16000MB
#p B2PLYPD3/Def2QZVP 

cyanomethane

0 1
C  -6.585701  -1.103133   1.171998
C  -5.203479  -0.828732   0.917972
N  -4.100434  -0.517392   0.697479
H  -6.783224  -1.213017   2.217213
H  -6.894457  -2.048338   0.625841
H  -7.210465  -0.289181   0.748422

