%chk=/home/boittier/MDCM/nms_sampling/cyanomethane_geom.xyz.dir/cyanomethane_506.chk
%nproc=8
%mem=16000MB
#p B2PLYPD3/Def2QZVP 

cyanomethane

0 1
C  -6.591313  -1.109499   1.158366
C  -5.205231  -0.809043   0.913885
N  -4.097132  -0.527194   0.700928
H  -6.786652  -1.246145   2.254280
H  -6.863574  -2.014140   0.657045
H  -7.194991  -0.311761   0.827664

