%chk=/home/boittier/MDCM/nms_sampling/cyanomethane_geom.xyz.dir/cyanomethane_3503.chk
%nproc=8
%mem=16000MB
#p B2PLYPD3/Def2QZVP 

cyanomethane

0 1
C  -6.574174  -1.135661   1.165434
C  -5.209167  -0.713301   0.892743
N  -4.100912  -0.573416   0.712196
H  -6.882629  -1.297886   2.280228
H  -6.904572  -2.063996   0.637561
H  -7.162912  -0.392788   0.801918

