%chk=/home/boittier/MDCM/nms_sampling/cyanomethane_geom.xyz.dir/cyanomethane_2011.chk
%nproc=8
%mem=16000MB
#p B2PLYPD3/Def2QZVP 

cyanomethane

0 1
C  -6.595003  -1.114956   1.161708
C  -5.205639  -0.795925   0.884024
N  -4.097730  -0.535214   0.716718
H  -6.791757  -1.227130   2.225998
H  -6.806081  -2.013135   0.731903
H  -7.187455  -0.327178   0.863948

