%chk=/home/boittier/MDCM/nms_sampling/cyanomethane_geom.xyz.dir/cyanomethane_2134.chk
%nproc=8
%mem=16000MB
#p B2PLYPD3/Def2QZVP 

cyanomethane

0 1
C  -6.597751  -1.109659   1.167701
C  -5.198129  -0.794177   0.882865
N  -4.087816  -0.537856   0.714498
H  -6.788260  -1.249573   2.256990
H  -6.879967  -2.039424   0.695327
H  -7.313568  -0.324865   0.843525

