%chk=/home/boittier/MDCM/nms_sampling/cyanomethane_geom.xyz.dir/cyanomethane_3438.chk
%nproc=8
%mem=16000MB
#p B2PLYPD3/Def2QZVP 

cyanomethane

0 1
C  -6.575631  -1.111065   1.171496
C  -5.206934  -0.806313   0.864891
N  -4.106609  -0.530312   0.731938
H  -6.966458  -1.201198   2.244059
H  -6.764814  -2.070410   0.706156
H  -7.148679  -0.294386   0.794252

