%chk=/home/boittier/MDCM/nms_sampling/cyanomethane_geom.xyz.dir/cyanomethane_2209.chk
%nproc=8
%mem=16000MB
#p B2PLYPD3/Def2QZVP 

cyanomethane

0 1
C  -6.580150  -1.130668   1.161253
C  -5.203595  -0.774475   0.944890
N  -4.103164  -0.544154   0.682118
H  -6.761301  -1.153530   2.176445
H  -6.902390  -2.026271   0.682107
H  -7.250870  -0.318786   0.729674
