%chk=/home/boittier/MDCM/nms_sampling/cyanomethane_geom.xyz.dir/cyanomethane_2729.chk
%nproc=8
%mem=16000MB
#p B2PLYPD3/Def2QZVP 

cyanomethane

0 1
C  -6.578420  -1.125545   1.176869
C  -5.209245  -0.760480   0.925803
N  -4.095774  -0.553250   0.683576
H  -6.607883  -1.234817   2.176850
H  -6.981612  -1.942503   0.627152
H  -7.382030  -0.416132   0.778779

