%chk=/home/boittier/MDCM/nms_sampling/cyanomethane_geom.xyz.dir/cyanomethane_2221.chk
%nproc=8
%mem=16000MB
#p B2PLYPD3/Def2QZVP 

cyanomethane

0 1
C  -6.601068  -1.111955   1.152044
C  -5.199737  -0.789562   0.936205
N  -4.085036  -0.540683   0.689143
H  -6.811039  -1.189245   2.254767
H  -6.837389  -2.035626   0.691974
H  -7.316643  -0.370075   0.757746

