%chk=/home/boittier/MDCM/nms_sampling/cyanomethane_geom.xyz.dir/cyanomethane_377.chk
%nproc=8
%mem=16000MB
#p B2PLYPD3/Def2QZVP 

cyanomethane

0 1
C  -6.605922  -1.115545   1.168184
C  -5.198791  -0.807887   0.911757
N  -4.089875  -0.527331   0.699863
H  -6.753338  -1.188021   2.204102
H  -6.892492  -2.037108   0.683797
H  -7.200951  -0.295475   0.775313
