%chk=/home/boittier/MDCM/nms_sampling/cyanomethane_geom.xyz.dir/cyanomethane_3016.chk
%nproc=8
%mem=16000MB
#p B2PLYPD3/Def2QZVP 

cyanomethane

0 1
C  -6.598714  -1.099044   1.180181
C  -5.192972  -0.767379   0.880289
N  -4.087360  -0.557365   0.716537
H  -6.836882  -1.295752   2.338006
H  -6.780174  -2.125394   0.585555
H  -7.425934  -0.364739   0.734313
