%chk=/home/boittier/MDCM/nms_sampling/cyanomethane_geom.xyz.dir/cyanomethane_1059.chk
%nproc=8
%mem=16000MB
#p B2PLYPD3/Def2QZVP 

cyanomethane

0 1
C  -6.596744  -1.110506   1.170583
C  -5.204336  -0.782179   0.903119
N  -4.095600  -0.545223   0.704050
H  -6.739686  -1.237957   2.208580
H  -6.788769  -2.076018   0.675163
H  -7.282148  -0.324723   0.784402
