%chk=/home/boittier/MDCM/nms_sampling/cyanomethane_geom.xyz.dir/cyanomethane_2315.chk
%nproc=8
%mem=16000MB
#p B2PLYPD3/Def2QZVP 

cyanomethane

0 1
C  -6.595502  -1.122218   1.159298
C  -5.207307  -0.757170   0.904577
N  -4.096776  -0.557616   0.705653
H  -6.772713  -1.234131   2.225256
H  -6.741933  -2.086104   0.712828
H  -7.257554  -0.306949   0.816826

