%chk=/home/boittier/MDCM/nms_sampling/cyanomethane_geom.xyz.dir/cyanomethane_919.chk
%nproc=8
%mem=16000MB
#p B2PLYPD3/Def2QZVP 

cyanomethane

0 1
C  -6.599115  -1.113552   1.176040
C  -5.199268  -0.801756   0.888072
N  -4.093633  -0.532062   0.711106
H  -6.749213  -1.193445   2.229329
H  -6.885322  -2.053138   0.690193
H  -7.236027  -0.313984   0.771637
