%chk=/home/boittier/MDCM/nms_sampling/cyanomethane_geom.xyz.dir/cyanomethane_893.chk
%nproc=8
%mem=16000MB
#p B2PLYPD3/Def2QZVP 

cyanomethane

0 1
C  -6.595491  -1.116533   1.159883
C  -5.204712  -0.791288   0.894516
N  -4.095320  -0.537028   0.710239
H  -6.773422  -1.221661   2.256491
H  -6.845880  -2.017814   0.713977
H  -7.206081  -0.336683   0.838554
