%chk=/home/boittier/MDCM/nms_sampling/cyanomethane_geom.xyz.dir/cyanomethane_3162.chk
%nproc=8
%mem=16000MB
#p B2PLYPD3/Def2QZVP 

cyanomethane

0 1
C  -6.590308  -1.101218   1.160932
C  -5.206247  -0.756456   0.913423
N  -4.107729  -0.557894   0.697747
H  -6.662278  -1.383393   2.219887
H  -6.785758  -2.152158   0.645518
H  -7.244780  -0.320577   0.868923
