%chk=/home/boittier/MDCM/nms_sampling/cyanomethane_geom.xyz.dir/cyanomethane_2464.chk
%nproc=8
%mem=16000MB
#p B2PLYPD3/Def2QZVP 

cyanomethane

0 1
C  -6.574904  -1.086880   1.168451
C  -5.210183  -0.798509   0.973747
N  -4.102559  -0.535886   0.663404
H  -6.661062  -1.371148   2.185253
H  -6.907120  -2.043261   0.488304
H  -7.342219  -0.390310   0.751290

