%chk=/home/boittier/MDCM/nms_sampling/cyanomethane_geom.xyz.dir/cyanomethane_1408.chk
%nproc=8
%mem=16000MB
#p B2PLYPD3/Def2QZVP 

cyanomethane

0 1
C  -6.598257  -1.093778   1.174672
C  -5.202066  -0.808528   0.867926
N  -4.090339  -0.530470   0.723489
H  -6.797810  -1.308917   2.294659
H  -6.856627  -2.063446   0.642747
H  -7.240023  -0.356154   0.836880
