%chk=/home/boittier/MDCM/nms_sampling/cyanomethane_geom.xyz.dir/cyanomethane_3265.chk
%nproc=8
%mem=16000MB
#p B2PLYPD3/Def2QZVP 

cyanomethane

0 1
C  -6.622948  -1.115528   1.152818
C  -5.197936  -0.800730   0.976347
N  -4.076227  -0.534056   0.667131
H  -6.743066  -1.153210   2.104509
H  -6.813467  -2.047771   0.697453
H  -7.286810  -0.299219   0.729046

