%chk=/home/boittier/MDCM/nms_sampling/cyanomethane_geom.xyz.dir/cyanomethane_1754.chk
%nproc=8
%mem=16000MB
#p B2PLYPD3/Def2QZVP 

cyanomethane

0 1
C  -6.611151  -1.100351   1.165755
C  -5.201111  -0.830292   0.915913
N  -4.086356  -0.516968   0.698415
H  -6.738601  -1.261838   2.246853
H  -6.864732  -2.021541   0.613006
H  -7.203397  -0.282373   0.813116

