%chk=/home/boittier/MDCM/nms_sampling/cyanomethane_geom.xyz.dir/cyanomethane_1206.chk
%nproc=8
%mem=16000MB
#p B2PLYPD3/Def2QZVP 

cyanomethane

0 1
C  -6.579965  -1.116165   1.159006
C  -5.204117  -0.796106   0.889273
N  -4.102698  -0.531877   0.714211
H  -6.832102  -1.252025   2.297768
H  -6.917017  -2.017265   0.680677
H  -7.167538  -0.319206   0.854818

