%chk=/home/boittier/MDCM/nms_sampling/cyanomethane_geom.xyz.dir/cyanomethane_1584.chk
%nproc=8
%mem=16000MB
#p B2PLYPD3/Def2QZVP 

cyanomethane

0 1
C  -6.596982  -1.123939   1.159098
C  -5.202813  -0.769899   0.941033
N  -4.089749  -0.546482   0.685529
H  -6.788615  -1.194732   2.237236
H  -6.897052  -2.054140   0.652292
H  -7.224425  -0.347867   0.724550

