%chk=/home/boittier/MDCM/nms_sampling/cyanomethane_geom.xyz.dir/cyanomethane_939.chk
%nproc=8
%mem=16000MB
#p B2PLYPD3/Def2QZVP 

cyanomethane

0 1
C  -6.597636  -1.105770   1.161113
C  -5.201904  -0.815869   0.910897
N  -4.090843  -0.525141   0.700281
H  -6.750248  -1.224476   2.256298
H  -6.889675  -2.012388   0.677488
H  -7.257518  -0.333737   0.813936
