%chk=/home/boittier/MDCM/nms_sampling/cyanomethane_geom.xyz.dir/cyanomethane_3231.chk
%nproc=8
%mem=16000MB
#p B2PLYPD3/Def2QZVP 

cyanomethane

0 1
C  -6.629010  -1.122573   1.174200
C  -5.197046  -0.791653   0.944711
N  -4.078959  -0.535841   0.676573
H  -6.566445  -1.164701   2.217737
H  -6.922290  -2.059934   0.618984
H  -7.254890  -0.279771   0.686666
