%chk=/home/boittier/MDCM/nms_sampling/cyanomethane_geom.xyz.dir/cyanomethane_2640.chk
%nproc=8
%mem=16000MB
#p B2PLYPD3/Def2QZVP 

cyanomethane

0 1
C  -6.580073  -1.111913   1.160231
C  -5.208089  -0.767977   0.907325
N  -4.098736  -0.555609   0.702231
H  -6.760844  -1.241392   2.250807
H  -6.763516  -2.094840   0.701188
H  -7.398297  -0.315345   0.807900

