%chk=/home/boittier/MDCM/nms_sampling/cyanomethane_geom.xyz.dir/cyanomethane_3568.chk
%nproc=8
%mem=16000MB
#p B2PLYPD3/Def2QZVP 

cyanomethane

0 1
C  -6.584678  -1.098760   1.144760
C  -5.204859  -0.790389   0.983325
N  -4.106928  -0.541013   0.659668
H  -6.624971  -1.301061   2.081849
H  -6.828397  -2.016321   0.683674
H  -7.337702  -0.386826   0.854038

