%chk=/home/boittier/MDCM/nms_sampling/cyanomethane_geom.xyz.dir/cyanomethane_2705.chk
%nproc=8
%mem=16000MB
#p B2PLYPD3/Def2QZVP 

cyanomethane

0 1
C  -6.577787  -1.112163   1.142120
C  -5.209675  -0.739268   0.896985
N  -4.100836  -0.565628   0.714232
H  -6.906191  -1.359375   2.310431
H  -6.771367  -2.125292   0.702646
H  -7.222698  -0.349924   0.908703
