%chk=/home/boittier/MDCM/nms_sampling/cyanomethane_geom.xyz.dir/cyanomethane_1281.chk
%nproc=8
%mem=16000MB
#p B2PLYPD3/Def2QZVP 

cyanomethane

0 1
C  -6.603091  -1.120927   1.171053
C  -5.198890  -0.784065   0.940431
N  -4.091563  -0.538845   0.682809
H  -6.712239  -1.210327   2.188403
H  -6.919548  -2.047819   0.612030
H  -7.225347  -0.306186   0.722352

