%chk=/home/boittier/MDCM/nms_sampling/cyanomethane_geom.xyz.dir/cyanomethane_2104.chk
%nproc=8
%mem=16000MB
#p B2PLYPD3/Def2QZVP 

cyanomethane

0 1
C  -6.590064  -1.108273   1.150192
C  -5.200703  -0.792435   0.946958
N  -4.096310  -0.536182   0.681884
H  -6.756742  -1.253973   2.241327
H  -6.909972  -2.027830   0.655857
H  -7.260621  -0.367904   0.799510
