%chk=/home/boittier/MDCM/nms_sampling/cyanomethane_geom.xyz.dir/cyanomethane_1327.chk
%nproc=8
%mem=16000MB
#p B2PLYPD3/Def2QZVP 

cyanomethane

0 1
C  -6.584219  -1.099921   1.163892
C  -5.207768  -0.812552   0.916836
N  -4.098867  -0.527822   0.699129
H  -6.791669  -1.234044   2.270295
H  -6.845867  -2.070015   0.641883
H  -7.239944  -0.334759   0.757635
