%chk=/home/boittier/MDCM/nms_sampling/cyanomethane_geom.xyz.dir/cyanomethane_2905.chk
%nproc=8
%mem=16000MB
#p B2PLYPD3/Def2QZVP 

cyanomethane

0 1
C  -6.592229  -1.146892   1.166390
C  -5.203632  -0.702615   0.893336
N  -4.087100  -0.581244   0.707651
H  -6.805242  -1.250549   2.152384
H  -6.899525  -2.009129   0.733275
H  -7.283794  -0.390569   0.855528
