%chk=/home/boittier/MDCM/nms_sampling/cyanomethane_geom.xyz.dir/cyanomethane_2305.chk
%nproc=8
%mem=16000MB
#p B2PLYPD3/Def2QZVP 

cyanomethane

0 1
C  -6.598969  -1.129431   1.168211
C  -5.200099  -0.756869   0.900890
N  -4.086248  -0.554232   0.706204
H  -6.827338  -1.180802   2.256108
H  -6.888684  -2.053987   0.691020
H  -7.250719  -0.361326   0.740466
