%chk=/home/boittier/MDCM/nms_sampling/cyanomethane_geom.xyz.dir/cyanomethane_2802.chk
%nproc=8
%mem=16000MB
#p B2PLYPD3/Def2QZVP 

cyanomethane

0 1
C  -6.570791  -1.126182   1.146887
C  -5.210442  -0.743609   0.932236
N  -4.106094  -0.565831   0.691281
H  -6.794661  -1.213002   2.240541
H  -6.759090  -2.068319   0.724304
H  -7.350117  -0.343289   0.800914
