%chk=/home/boittier/MDCM/nms_sampling/cyanomethane_geom.xyz.dir/cyanomethane_2927.chk
%nproc=8
%mem=16000MB
#p B2PLYPD3/Def2QZVP 

cyanomethane

0 1
C  -6.599756  -1.103254   1.142188
C  -5.210502  -0.844553   0.948169
N  -4.100299  -0.510466   0.682483
H  -6.660722  -1.203666   2.211168
H  -6.787381  -1.943381   0.704375
H  -7.188593  -0.306946   0.865405

