%chk=/home/boittier/MDCM/nms_sampling/cyanomethane_geom.xyz.dir/cyanomethane_123.chk
%nproc=8
%mem=16000MB
#p B2PLYPD3/Def2QZVP 

cyanomethane

0 1
C  -6.587666  -1.109077   1.162574
C  -5.202675  -0.794934   0.890693
N  -4.099323  -0.536009   0.713360
H  -6.820718  -1.258719   2.267152
H  -6.843474  -2.059661   0.683232
H  -7.223822  -0.313127   0.836396
