%chk=/home/boittier/MDCM/nms_sampling/cyanomethane_geom.xyz.dir/cyanomethane_2833.chk
%nproc=8
%mem=16000MB
#p B2PLYPD3/Def2QZVP 

cyanomethane

0 1
C  -6.606910  -1.115698   1.162437
C  -5.203027  -0.789612   0.865996
N  -4.085850  -0.538964   0.732364
H  -6.954524  -1.255590   2.298659
H  -6.732059  -2.101778   0.684339
H  -7.152307  -0.226249   0.849869

