%chk=/home/boittier/MDCM/nms_sampling/cyanomethane_geom.xyz.dir/cyanomethane_3200.chk
%nproc=8
%mem=16000MB
#p B2PLYPD3/Def2QZVP 

cyanomethane

0 1
C  -6.626468  -1.121343   1.196305
C  -5.191446  -0.785716   0.842770
N  -4.087208  -0.541655   0.734388
H  -6.739454  -1.134151   2.234960
H  -6.798711  -2.082854   0.720244
H  -7.186584  -0.332920   0.708678
