%chk=/home/boittier/MDCM/nms_sampling/cyanomethane_geom.xyz.dir/cyanomethane_3368.chk
%nproc=8
%mem=16000MB
#p B2PLYPD3/Def2QZVP 

cyanomethane

0 1
C  -6.583518  -1.112268   1.153935
C  -5.205087  -0.805212   0.873446
N  -4.093746  -0.531979   0.727372
H  -6.967405  -1.159005   2.278352
H  -6.797933  -2.052447   0.798385
H  -7.222163  -0.341135   0.824637

