%chk=/home/boittier/MDCM/nms_sampling/cyanomethane_geom.xyz.dir/cyanomethane_668.chk
%nproc=8
%mem=16000MB
#p B2PLYPD3/Def2QZVP 

cyanomethane

0 1
C  -6.604326  -1.114579   1.176817
C  -5.201542  -0.800151   0.890333
N  -4.090344  -0.532807   0.710856
H  -6.755163  -1.217278   2.236717
H  -6.852788  -2.057841   0.650842
H  -7.218331  -0.276108   0.777236

