%chk=/home/boittier/MDCM/nms_sampling/cyanomethane_geom.xyz.dir/cyanomethane_1257.chk
%nproc=8
%mem=16000MB
#p B2PLYPD3/Def2QZVP 

cyanomethane

0 1
C  -6.600362  -1.135010   1.161910
C  -5.196629  -0.754300   0.910593
N  -4.090489  -0.555360   0.699855
H  -6.773699  -1.203719   2.235924
H  -6.882988  -1.996938   0.686553
H  -7.274952  -0.336992   0.805479
