%chk=/home/boittier/MDCM/nms_sampling/cyanomethane_geom.xyz.dir/cyanomethane_1215.chk
%nproc=8
%mem=16000MB
#p B2PLYPD3/Def2QZVP 

cyanomethane

0 1
C  -6.597333  -1.113283   1.187804
C  -5.198399  -0.791639   0.863541
N  -4.086489  -0.537435   0.723949
H  -6.819294  -1.210562   2.248559
H  -6.920625  -2.088765   0.667916
H  -7.262014  -0.314881   0.749859
