%chk=/home/boittier/MDCM/nms_sampling/cyanomethane_geom.xyz.dir/cyanomethane_1102.chk
%nproc=8
%mem=16000MB
#p B2PLYPD3/Def2QZVP 

cyanomethane

0 1
C  -6.603109  -1.120473   1.162260
C  -5.198949  -0.777927   0.924684
N  -4.091572  -0.542550   0.692784
H  -6.743165  -1.246058   2.213351
H  -6.889908  -2.047184   0.652462
H  -7.221559  -0.301335   0.801917

