%chk=/home/boittier/MDCM/nms_sampling/cyanomethane_geom.xyz.dir/cyanomethane_3502.chk
%nproc=8
%mem=16000MB
#p B2PLYPD3/Def2QZVP 

cyanomethane

0 1
C  -6.602288  -1.093791   1.179835
C  -5.196818  -0.863409   0.889163
N  -4.078658  -0.504264   0.712877
H  -6.864156  -1.144847   2.181299
H  -6.869013  -1.995295   0.694408
H  -7.340435  -0.315607   0.753702
