%chk=/home/boittier/MDCM/nms_sampling/cyanomethane_geom.xyz.dir/cyanomethane_2789.chk
%nproc=8
%mem=16000MB
#p B2PLYPD3/Def2QZVP 

cyanomethane

0 1
C  -6.613308  -1.116739   1.181024
C  -5.200295  -0.771286   0.876784
N  -4.084118  -0.548141   0.711461
H  -6.623109  -1.255104   2.151324
H  -6.914923  -2.047691   0.730035
H  -7.278064  -0.355482   0.848475

