%chk=/home/boittier/MDCM/nms_sampling/cyanomethane_geom.xyz.dir/cyanomethane_1162.chk
%nproc=8
%mem=16000MB
#p B2PLYPD3/Def2QZVP 

cyanomethane

0 1
C  -6.595233  -1.122745   1.167659
C  -5.201622  -0.771065   0.905606
N  -4.091386  -0.547184   0.703756
H  -6.799795  -1.220083   2.253811
H  -6.875826  -2.071759   0.659229
H  -7.245066  -0.304729   0.767939
