%chk=/home/boittier/MDCM/nms_sampling/cyanomethane_geom.xyz.dir/cyanomethane_1890.chk
%nproc=8
%mem=16000MB
#p B2PLYPD3/Def2QZVP 

cyanomethane

0 1
C  -6.610066  -1.115497   1.180551
C  -5.200448  -0.824859   0.894975
N  -4.087722  -0.519671   0.706315
H  -6.695129  -1.142208   2.228912
H  -6.888183  -2.023150   0.669998
H  -7.224741  -0.272256   0.736212

