%chk=/home/boittier/MDCM/nms_sampling/cyanomethane_geom.xyz.dir/cyanomethane_737.chk
%nproc=8
%mem=16000MB
#p B2PLYPD3/Def2QZVP 

cyanomethane

0 1
C  -6.590051  -1.116593   1.172743
C  -5.201911  -0.770166   0.904848
N  -4.097880  -0.549324   0.702698
H  -6.762058  -1.233568   2.250457
H  -6.855390  -2.074510   0.641986
H  -7.272464  -0.341704   0.748887
