%chk=/home/boittier/MDCM/nms_sampling/cyanomethane_geom.xyz.dir/cyanomethane_1322.chk
%nproc=8
%mem=16000MB
#p B2PLYPD3/Def2QZVP 

cyanomethane

0 1
C  -6.581676  -1.118389   1.172518
C  -5.207082  -0.784691   0.928586
N  -4.096722  -0.540347   0.687435
H  -6.703848  -1.190186   2.199283
H  -6.942082  -2.059064   0.654088
H  -7.298239  -0.327761   0.722271
