%chk=/home/boittier/MDCM/nms_sampling/cyanomethane_geom.xyz.dir/cyanomethane_1374.chk
%nproc=8
%mem=16000MB
#p B2PLYPD3/Def2QZVP 

cyanomethane

0 1
C  -6.598505  -1.098274   1.163538
C  -5.195478  -0.837334   0.908342
N  -4.090205  -0.515967   0.702857
H  -6.803607  -1.171233   2.252100
H  -6.878782  -2.022401   0.704060
H  -7.292320  -0.349035   0.766724

