%chk=/home/boittier/MDCM/nms_sampling/cyanomethane_geom.xyz.dir/cyanomethane_2460.chk
%nproc=8
%mem=16000MB
#p B2PLYPD3/Def2QZVP 

cyanomethane

0 1
C  -6.563023  -1.108568   1.193479
C  -5.212819  -0.771753   0.855347
N  -4.105508  -0.545493   0.725686
H  -6.768793  -1.323350   2.244896
H  -6.985339  -2.111956   0.616455
H  -7.219846  -0.341714   0.798548

