%chk=/home/boittier/MDCM/nms_sampling/cyanomethane_geom.xyz.dir/cyanomethane_2753.chk
%nproc=8
%mem=16000MB
#p B2PLYPD3/Def2QZVP 

cyanomethane

0 1
C  -6.603199  -1.104615   1.194283
C  -5.201056  -0.850477   0.896091
N  -4.081744  -0.503014   0.705620
H  -6.762345  -1.135936   2.269875
H  -7.034123  -2.058241   0.588989
H  -7.173212  -0.292871   0.631724
