%chk=/home/boittier/MDCM/nms_sampling/cyanomethane_geom.xyz.dir/cyanomethane_2296.chk
%nproc=8
%mem=16000MB
#p B2PLYPD3/Def2QZVP 

cyanomethane

0 1
C  -6.606081  -1.121396   1.163885
C  -5.201813  -0.785149   0.884340
N  -4.088630  -0.538971   0.714214
H  -6.755814  -1.209993   2.244711
H  -6.880311  -2.007541   0.733774
H  -7.189195  -0.350979   0.842294
