%chk=/home/boittier/MDCM/nms_sampling/cyanomethane_geom.xyz.dir/cyanomethane_1995.chk
%nproc=8
%mem=16000MB
#p B2PLYPD3/Def2QZVP 

cyanomethane

0 1
C  -6.595898  -1.104816   1.162376
C  -5.200797  -0.806075   0.892007
N  -4.086556  -0.530218   0.712994
H  -6.868329  -1.267690   2.225663
H  -6.874783  -2.013445   0.688861
H  -7.246900  -0.345762   0.861026
