%chk=/home/boittier/MDCM/nms_sampling/cyanomethane_geom.xyz.dir/cyanomethane_3342.chk
%nproc=8
%mem=16000MB
#p B2PLYPD3/Def2QZVP 

cyanomethane

0 1
C  -6.619414  -1.102236   1.145279
C  -5.194493  -0.781453   0.897910
N  -4.092908  -0.543049   0.713343
H  -6.820271  -1.331699   2.315549
H  -6.745557  -2.092493   0.690932
H  -7.128105  -0.341699   0.894088
