%chk=/home/boittier/MDCM/nms_sampling/cyanomethane_geom.xyz.dir/cyanomethane_2588.chk
%nproc=8
%mem=16000MB
#p B2PLYPD3/Def2QZVP 

cyanomethane

0 1
C  -6.604557  -1.107567   1.160260
C  -5.199947  -0.739478   0.901935
N  -4.081916  -0.569178   0.711531
H  -6.952723  -1.299091   2.309657
H  -6.714868  -2.129924   0.634637
H  -7.296722  -0.415120   0.752786
