%chk=/home/boittier/MDCM/nms_sampling/cyanomethane_geom.xyz.dir/cyanomethane_1958.chk
%nproc=8
%mem=16000MB
#p B2PLYPD3/Def2QZVP 

cyanomethane

0 1
C  -6.597583  -1.104813   1.162686
C  -5.200612  -0.792761   0.942611
N  -4.089495  -0.540235   0.682311
H  -6.726246  -1.207616   2.193973
H  -6.852199  -2.094605   0.674594
H  -7.353735  -0.340991   0.729992
