%chk=/home/boittier/MDCM/nms_sampling/cyanomethane_geom.xyz.dir/cyanomethane_3139.chk
%nproc=8
%mem=16000MB
#p B2PLYPD3/Def2QZVP 

cyanomethane

0 1
C  -6.604800  -1.134180   1.154647
C  -5.200441  -0.723464   0.909380
N  -4.081805  -0.571112   0.698944
H  -6.736320  -1.264086   2.307296
H  -6.921252  -2.024489   0.685048
H  -7.296564  -0.402270   0.830973

