%chk=/home/boittier/MDCM/nms_sampling/cyanomethane_geom.xyz.dir/cyanomethane_2374.chk
%nproc=8
%mem=16000MB
#p B2PLYPD3/Def2QZVP 

cyanomethane

0 1
C  -6.585911  -1.123820   1.167056
C  -5.208516  -0.815796   0.917864
N  -4.099391  -0.521574   0.697467
H  -6.770191  -1.121553   2.208089
H  -6.905079  -1.989006   0.693574
H  -7.164101  -0.302369   0.740613

