%chk=/home/boittier/MDCM/nms_sampling/cyanomethane_geom.xyz.dir/cyanomethane_3118.chk
%nproc=8
%mem=16000MB
#p B2PLYPD3/Def2QZVP 

cyanomethane

0 1
C  -6.586599  -1.111767   1.138299
C  -5.212825  -0.778273   0.899629
N  -4.103288  -0.547524   0.710552
H  -6.776154  -1.245833   2.299066
H  -6.713479  -2.007047   0.777767
H  -7.234961  -0.392595   0.908038
