%chk=/home/boittier/MDCM/nms_sampling/cyanomethane_geom.xyz.dir/cyanomethane_1909.chk
%nproc=8
%mem=16000MB
#p B2PLYPD3/Def2QZVP 

cyanomethane

0 1
C  -6.603214  -1.102968   1.176519
C  -5.202305  -0.817383   0.884204
N  -4.089528  -0.527316   0.714506
H  -6.769769  -1.201067   2.203340
H  -6.802468  -2.047842   0.698923
H  -7.270141  -0.320215   0.785270

