%chk=/home/boittier/MDCM/nms_sampling/cyanomethane_geom.xyz.dir/cyanomethane_2881.chk
%nproc=8
%mem=16000MB
#p B2PLYPD3/Def2QZVP 

cyanomethane

0 1
C  -6.577445  -1.099125   1.152251
C  -5.202073  -0.829405   0.949669
N  -4.107515  -0.517484   0.683748
H  -6.806370  -1.221964   2.336997
H  -6.878702  -2.060230   0.586417
H  -7.224756  -0.298417   0.725753
