%chk=/home/boittier/MDCM/nms_sampling/cyanomethane_geom.xyz.dir/cyanomethane_718.chk
%nproc=8
%mem=16000MB
#p B2PLYPD3/Def2QZVP 

cyanomethane

0 1
C  -6.606958  -1.114098   1.167991
C  -5.200358  -0.789608   0.926406
N  -4.089636  -0.538202   0.690756
H  -6.701116  -1.223936   2.240325
H  -6.872311  -2.071881   0.629755
H  -7.246611  -0.300009   0.746327

