%chk=/home/boittier/MDCM/nms_sampling/cyanomethane_geom.xyz.dir/cyanomethane_1876.chk
%nproc=8
%mem=16000MB
#p B2PLYPD3/Def2QZVP 

cyanomethane

0 1
C  -6.592458  -1.101415   1.168203
C  -5.208297  -0.820086   0.915168
N  -4.097847  -0.523973   0.698552
H  -6.729648  -1.252277   2.213575
H  -6.821229  -2.061951   0.635179
H  -7.232571  -0.266811   0.799536
