%chk=/home/boittier/MDCM/nms_sampling/cyanomethane_geom.xyz.dir/cyanomethane_3411.chk
%nproc=8
%mem=16000MB
#p B2PLYPD3/Def2QZVP 

cyanomethane

0 1
C  -6.578439  -1.102442   1.190297
C  -5.205121  -0.833409   0.910133
N  -4.106863  -0.512552   0.698269
H  -6.726744  -1.232528   2.226775
H  -6.970157  -2.041172   0.538715
H  -7.170038  -0.289080   0.698522
