%chk=/home/boittier/MDCM/nms_sampling/cyanomethane_geom.xyz.dir/cyanomethane_3032.chk
%nproc=8
%mem=16000MB
#p B2PLYPD3/Def2QZVP 

cyanomethane

0 1
C  -6.593550  -1.086968   1.161103
C  -5.203986  -0.844346   0.931394
N  -4.088066  -0.511343   0.687978
H  -6.720174  -1.237675   2.191444
H  -6.946841  -2.060584   0.690939
H  -7.292350  -0.341263   0.797860
