%chk=/home/boittier/MDCM/nms_sampling/cyanomethane_geom.xyz.dir/cyanomethane_1607.chk
%nproc=8
%mem=16000MB
#p B2PLYPD3/Def2QZVP 

cyanomethane

0 1
C  -6.591652  -1.110503   1.177212
C  -5.203308  -0.801865   0.867690
N  -4.102490  -0.531623   0.723442
H  -6.767794  -1.270299   2.248770
H  -6.838627  -2.042810   0.654596
H  -7.180491  -0.281654   0.846307

