%chk=/home/boittier/MDCM/nms_sampling/cyanomethane_geom.xyz.dir/cyanomethane_907.chk
%nproc=8
%mem=16000MB
#p B2PLYPD3/Def2QZVP 

cyanomethane

0 1
C  -6.594825  -1.109156   1.167432
C  -5.202584  -0.798229   0.886649
N  -4.098949  -0.535481   0.713479
H  -6.757689  -1.239637   2.238406
H  -6.813692  -2.016552   0.695019
H  -7.237261  -0.346811   0.835538

