%chk=/home/boittier/MDCM/nms_sampling/cyanomethane_geom.xyz.dir/cyanomethane_2585.chk
%nproc=8
%mem=16000MB
#p B2PLYPD3/Def2QZVP 

cyanomethane

0 1
C  -6.630400  -1.139804   1.159077
C  -5.197296  -0.722876   0.931253
N  -4.076738  -0.567970   0.690531
H  -6.754264  -1.221949   2.213231
H  -6.874741  -2.113792   0.683951
H  -7.122726  -0.332139   0.747831

