%chk=/home/boittier/MDCM/nms_sampling/cyanomethane_geom.xyz.dir/cyanomethane_3145.chk
%nproc=8
%mem=16000MB
#p B2PLYPD3/Def2QZVP 

cyanomethane

0 1
C  -6.625820  -1.106899   1.139335
C  -5.198422  -0.812092   0.960229
N  -4.076561  -0.525426   0.681732
H  -6.845848  -1.279822   2.230724
H  -6.793000  -2.072370   0.627648
H  -7.159112  -0.219561   0.838412
