%chk=/home/boittier/MDCM/nms_sampling/cyanomethane_geom.xyz.dir/cyanomethane_716.chk
%nproc=8
%mem=16000MB
#p B2PLYPD3/Def2QZVP 

cyanomethane

0 1
C  -6.589292  -1.107804   1.160922
C  -5.203880  -0.812749   0.912266
N  -4.097255  -0.525362   0.701059
H  -6.783261  -1.240834   2.258798
H  -6.888714  -2.027720   0.655092
H  -7.212099  -0.306552   0.814381

