%chk=/home/boittier/MDCM/nms_sampling/cyanomethane_geom.xyz.dir/cyanomethane_3340.chk
%nproc=8
%mem=16000MB
#p B2PLYPD3/Def2QZVP 

cyanomethane

0 1
C  -6.625395  -1.099707   1.142670
C  -5.197995  -0.813059   0.971410
N  -4.077790  -0.526689   0.671896
H  -6.752826  -1.215164   2.239340
H  -6.830230  -2.069715   0.664778
H  -7.211452  -0.353142   0.745406
