%chk=/home/boittier/MDCM/nms_sampling/cyanomethane_geom.xyz.dir/cyanomethane_840.chk
%nproc=8
%mem=16000MB
#p B2PLYPD3/Def2QZVP 

cyanomethane

0 1
C  -6.590936  -1.121648   1.173950
C  -5.201833  -0.775838   0.891747
N  -4.097265  -0.546431   0.708547
H  -6.739428  -1.198690   2.236234
H  -6.862901  -2.059751   0.689663
H  -7.284891  -0.314637   0.772985

