%chk=/home/boittier/MDCM/nms_sampling/cyanomethane_geom.xyz.dir/cyanomethane_2913.chk
%nproc=8
%mem=16000MB
#p B2PLYPD3/Def2QZVP 

cyanomethane

0 1
C  -6.563288  -1.122154   1.188589
C  -5.211143  -0.832163   0.859873
N  -4.106102  -0.515598   0.724640
H  -6.771424  -1.104711   2.247080
H  -6.944689  -1.996831   0.701523
H  -7.268888  -0.242780   0.755718
