%chk=/home/boittier/MDCM/nms_sampling/cyanomethane_geom.xyz.dir/cyanomethane_2973.chk
%nproc=8
%mem=16000MB
#p B2PLYPD3/Def2QZVP 

cyanomethane

0 1
C  -6.590533  -1.129806   1.136292
C  -5.202478  -0.769478   0.980781
N  -4.103395  -0.542895   0.661684
H  -6.638327  -1.227193   2.205428
H  -6.977003  -1.982734   0.689224
H  -7.184011  -0.353253   0.830298
