%chk=/home/boittier/MDCM/nms_sampling/cyanomethane_geom.xyz.dir/cyanomethane_3100.chk
%nproc=8
%mem=16000MB
#p B2PLYPD3/Def2QZVP 

cyanomethane

0 1
C  -6.608221  -1.109785   1.130163
C  -5.196685  -0.781621   0.983562
N  -4.079241  -0.542029   0.663079
H  -6.758282  -1.243777   2.228797
H  -6.928316  -1.978993   0.697362
H  -7.310606  -0.449597   0.818173
