%chk=/home/boittier/MDCM/nms_sampling/cyanomethane_geom.xyz.dir/cyanomethane_2288.chk
%nproc=8
%mem=16000MB
#p B2PLYPD3/Def2QZVP 

cyanomethane

0 1
C  -6.597906  -1.094517   1.158954
C  -5.197401  -0.836566   0.914421
N  -4.091762  -0.514697   0.699420
H  -6.779327  -1.230320   2.251052
H  -6.906788  -2.012974   0.683519
H  -7.250249  -0.358179   0.813810

