%chk=/home/boittier/MDCM/nms_sampling/cyanomethane_geom.xyz.dir/cyanomethane_449.chk
%nproc=8
%mem=16000MB
#p B2PLYPD3/Def2QZVP 

cyanomethane

0 1
C  -6.596903  -1.109969   1.172966
C  -5.199615  -0.811266   0.907168
N  -4.092092  -0.524929   0.701023
H  -6.754689  -1.238734   2.220661
H  -6.946369  -2.016991   0.632938
H  -7.214239  -0.315649   0.790860
