%chk=/home/boittier/MDCM/nms_sampling/cyanomethane_geom.xyz.dir/cyanomethane_481.chk
%nproc=8
%mem=16000MB
#p B2PLYPD3/Def2QZVP 

cyanomethane

0 1
C  -6.598477  -1.111884   1.156029
C  -5.203693  -0.796025   0.932382
N  -4.094065  -0.535653   0.690729
H  -6.760347  -1.203607   2.213449
H  -6.826645  -2.059604   0.694423
H  -7.232888  -0.321775   0.776492
