%chk=/home/boittier/MDCM/nms_sampling/cyanomethane_geom.xyz.dir/cyanomethane_1721.chk
%nproc=8
%mem=16000MB
#p B2PLYPD3/Def2QZVP 

cyanomethane

0 1
C  -6.597082  -1.111692   1.161480
C  -5.200610  -0.796967   0.887789
N  -4.087727  -0.535000   0.713648
H  -6.824138  -1.233597   2.248281
H  -6.877371  -1.979118   0.714415
H  -7.261116  -0.382253   0.855347

