%chk=/home/boittier/MDCM/nms_sampling/cyanomethane_geom.xyz.dir/cyanomethane_497.chk
%nproc=8
%mem=16000MB
#p B2PLYPD3/Def2QZVP 

cyanomethane

0 1
C  -6.595291  -1.115197   1.174380
C  -5.200019  -0.788611   0.887293
N  -4.092724  -0.539172   0.712779
H  -6.798612  -1.215052   2.238210
H  -6.872263  -2.058151   0.677939
H  -7.249611  -0.322726   0.778121
