%chk=/home/boittier/MDCM/nms_sampling/cyanomethane_geom.xyz.dir/cyanomethane_3499.chk
%nproc=8
%mem=16000MB
#p B2PLYPD3/Def2QZVP 

cyanomethane

0 1
C  -6.590389  -1.125432   1.141808
C  -5.196736  -0.735748   0.901393
N  -4.092017  -0.570694   0.708068
H  -6.861136  -1.296258   2.252598
H  -6.764903  -1.972527   0.740335
H  -7.402764  -0.390018   0.946401
