%chk=/home/boittier/MDCM/nms_sampling/cyanomethane_geom.xyz.dir/cyanomethane_1100.chk
%nproc=8
%mem=16000MB
#p B2PLYPD3/Def2QZVP 

cyanomethane

0 1
C  -6.596272  -1.114284   1.170743
C  -5.204724  -0.785677   0.920795
N  -4.095180  -0.539243   0.693361
H  -6.706625  -1.254279   2.200307
H  -6.887588  -2.060056   0.629588
H  -7.223024  -0.306520   0.778666

