%chk=/home/boittier/MDCM/nms_sampling/cyanomethane_geom.xyz.dir/cyanomethane_3575.chk
%nproc=8
%mem=16000MB
#p B2PLYPD3/Def2QZVP 

cyanomethane

0 1
C  -6.586573  -1.140031   1.166334
C  -5.207259  -0.722615   0.882808
N  -4.092843  -0.569034   0.715553
H  -6.826177  -1.311417   2.312302
H  -6.904116  -2.003086   0.610708
H  -7.206130  -0.339198   0.858893

