%chk=/home/boittier/MDCM/nms_sampling/cyanomethane_geom.xyz.dir/cyanomethane_2018.chk
%nproc=8
%mem=16000MB
#p B2PLYPD3/Def2QZVP 

cyanomethane

0 1
C  -6.596566  -1.125792   1.168477
C  -5.206920  -0.757720   0.912145
N  -4.097081  -0.554684   0.700852
H  -6.762531  -1.243083   2.253069
H  -6.789325  -2.065808   0.617997
H  -7.210063  -0.299142   0.762688
