%chk=/home/boittier/MDCM/nms_sampling/cyanomethane_geom.xyz.dir/cyanomethane_2268.chk
%nproc=8
%mem=16000MB
#p B2PLYPD3/Def2QZVP 

cyanomethane

0 1
C  -6.588729  -1.119303   1.159056
C  -5.201568  -0.818768   0.912091
N  -4.098312  -0.519354   0.699964
H  -6.765722  -1.194560   2.246888
H  -6.953847  -1.942656   0.680536
H  -7.184525  -0.316443   0.835284

