%chk=/home/boittier/MDCM/nms_sampling/cyanomethane_geom.xyz.dir/cyanomethane_2883.chk
%nproc=8
%mem=16000MB
#p B2PLYPD3/Def2QZVP 

cyanomethane

0 1
C  -6.598579  -1.108662   1.168392
C  -5.207566  -0.808145   0.946907
N  -4.095816  -0.527188   0.674597
H  -6.549540  -1.215304   2.109434
H  -6.954862  -2.029868   0.687232
H  -7.240724  -0.340480   0.780361
