%chk=/home/boittier/MDCM/nms_sampling/cyanomethane_geom.xyz.dir/cyanomethane_1809.chk
%nproc=8
%mem=16000MB
#p B2PLYPD3/Def2QZVP 

cyanomethane

0 1
C  -6.598434  -1.124325   1.172349
C  -5.200336  -0.780040   0.934529
N  -4.085820  -0.541493   0.686050
H  -6.753411  -1.207747   2.237223
H  -6.940469  -2.041584   0.585428
H  -7.283274  -0.288534   0.713679
