%chk=/home/boittier/MDCM/nms_sampling/cyanomethane_geom.xyz.dir/cyanomethane_2349.chk
%nproc=8
%mem=16000MB
#p B2PLYPD3/Def2QZVP 

cyanomethane

0 1
C  -6.600033  -1.124038   1.167676
C  -5.200129  -0.768526   0.911142
N  -4.085630  -0.548855   0.699994
H  -6.795485  -1.183953   2.228823
H  -6.894623  -2.073059   0.692604
H  -7.271271  -0.336139   0.740753
