%chk=/home/boittier/MDCM/nms_sampling/cyanomethane_geom.xyz.dir/cyanomethane_2605.chk
%nproc=8
%mem=16000MB
#p B2PLYPD3/Def2QZVP 

cyanomethane

0 1
C  -6.616503  -1.113060   1.133260
C  -5.191968  -0.808125   0.951452
N  -4.083066  -0.526365   0.681079
H  -6.752082  -1.236408   2.225629
H  -6.920776  -2.000160   0.735730
H  -7.223436  -0.309283   0.892239
