%chk=/home/boittier/MDCM/nms_sampling/cyanomethane_geom.xyz.dir/cyanomethane_3121.chk
%nproc=8
%mem=16000MB
#p B2PLYPD3/Def2QZVP 

cyanomethane

0 1
C  -6.593826  -1.082120   1.175554
C  -5.195838  -0.876977   0.905347
N  -4.090301  -0.497679   0.701835
H  -6.765877  -1.151313   2.231054
H  -6.908152  -1.993187   0.680250
H  -7.353411  -0.375766   0.728734

