%chk=/home/boittier/MDCM/nms_sampling/cyanomethane_geom.xyz.dir/cyanomethane_2095.chk
%nproc=8
%mem=16000MB
#p B2PLYPD3/Def2QZVP 

cyanomethane

0 1
C  -6.611450  -1.115453   1.178620
C  -5.196724  -0.768604   0.887855
N  -4.089031  -0.553096   0.710873
H  -6.736542  -1.228305   2.178176
H  -6.772962  -2.078078   0.692642
H  -7.306254  -0.332725   0.781111

