%chk=/home/boittier/MDCM/nms_sampling/cyanomethane_geom.xyz.dir/cyanomethane_856.chk
%nproc=8
%mem=16000MB
#p B2PLYPD3/Def2QZVP 

cyanomethane

0 1
C  -6.605073  -1.101600   1.167192
C  -5.201469  -0.816271   0.906460
N  -4.089847  -0.524126   0.702760
H  -6.743348  -1.252053   2.236898
H  -6.882081  -2.046331   0.656174
H  -7.200622  -0.326241   0.804364

