%chk=/home/boittier/MDCM/nms_sampling/cyanomethane_geom.xyz.dir/cyanomethane_1225.chk
%nproc=8
%mem=16000MB
#p B2PLYPD3/Def2QZVP 

cyanomethane

0 1
C  -6.589462  -1.113118   1.179788
C  -5.204544  -0.817855   0.913256
N  -4.101869  -0.522400   0.697268
H  -6.702257  -1.199482   2.209275
H  -6.895832  -2.065731   0.612553
H  -7.210136  -0.228827   0.736652
