%chk=/home/boittier/MDCM/nms_sampling/cyanomethane_geom.xyz.dir/cyanomethane_1716.chk
%nproc=8
%mem=16000MB
#p B2PLYPD3/Def2QZVP 

cyanomethane

0 1
C  -6.591251  -1.118382   1.165153
C  -5.205776  -0.779651   0.925153
N  -4.097410  -0.542571   0.688929
H  -6.654278  -1.214774   2.182352
H  -6.919188  -2.044272   0.699869
H  -7.259834  -0.346433   0.788121
