%chk=/home/boittier/MDCM/nms_sampling/cyanomethane_geom.xyz.dir/cyanomethane_2933.chk
%nproc=8
%mem=16000MB
#p B2PLYPD3/Def2QZVP 

cyanomethane

0 1
C  -6.587221  -1.103077   1.188486
C  -5.198421  -0.863901   0.898886
N  -4.101065  -0.498369   0.702165
H  -6.687326  -1.097078   2.232418
H  -7.004946  -1.996841   0.658728
H  -7.231677  -0.325062   0.671662
