%chk=/home/boittier/MDCM/nms_sampling/cyanomethane_geom.xyz.dir/cyanomethane_810.chk
%nproc=8
%mem=16000MB
#p B2PLYPD3/Def2QZVP 

cyanomethane

0 1
C  -6.606621  -1.115948   1.160215
C  -5.198073  -0.788014   0.923738
N  -4.090254  -0.540495   0.694748
H  -6.765664  -1.210687   2.207954
H  -6.812679  -2.048358   0.683757
H  -7.263907  -0.307447   0.787583
