%chk=/home/boittier/MDCM/nms_sampling/cyanomethane_geom.xyz.dir/cyanomethane_147.chk
%nproc=8
%mem=16000MB
#p B2PLYPD3/Def2QZVP 

cyanomethane

0 1
C  -6.604922  -1.105455   1.162484
C  -5.200903  -0.795289   0.918786
N  -4.089896  -0.537011   0.694743
H  -6.702525  -1.248792   2.205700
H  -6.855566  -2.053716   0.687783
H  -7.275208  -0.347559   0.810582

