%chk=/home/boittier/MDCM/nms_sampling/cyanomethane_geom.xyz.dir/cyanomethane_2543.chk
%nproc=8
%mem=16000MB
#p B2PLYPD3/Def2QZVP 

cyanomethane

0 1
C  -6.603211  -1.099451   1.174938
C  -5.196041  -0.832270   0.913572
N  -4.094239  -0.522327   0.698356
H  -6.739499  -1.150091   2.140431
H  -6.766017  -2.041069   0.707939
H  -7.347397  -0.311848   0.738709

