%chk=/home/boittier/MDCM/nms_sampling/cyanomethane_geom.xyz.dir/cyanomethane_3073.chk
%nproc=8
%mem=16000MB
#p B2PLYPD3/Def2QZVP 

cyanomethane

0 1
C  -6.579936  -1.091523   1.179058
C  -5.205256  -0.822765   0.861088
N  -4.110690  -0.526831   0.729864
H  -6.821159  -1.247470   2.357459
H  -6.720411  -2.098173   0.620281
H  -7.253665  -0.304988   0.759583
