%chk=/home/boittier/MDCM/nms_sampling/cyanomethane_geom.xyz.dir/cyanomethane_536.chk
%nproc=8
%mem=16000MB
#p B2PLYPD3/Def2QZVP 

cyanomethane

0 1
C  -6.595258  -1.110927   1.155828
C  -5.202467  -0.789915   0.928514
N  -4.098519  -0.538148   0.693216
H  -6.768141  -1.247474   2.232858
H  -6.829819  -2.078857   0.667569
H  -7.212589  -0.301968   0.798787

