%chk=/home/boittier/MDCM/nms_sampling/cyanomethane_geom.xyz.dir/cyanomethane_389.chk
%nproc=8
%mem=16000MB
#p B2PLYPD3/Def2QZVP 

cyanomethane

0 1
C  -6.594668  -1.108423   1.157055
C  -5.200371  -0.809969   0.915943
N  -4.093971  -0.526663   0.699776
H  -6.800684  -1.237723   2.255276
H  -6.893089  -2.039246   0.672698
H  -7.213250  -0.306135   0.818901
