%chk=/home/boittier/MDCM/nms_sampling/cyanomethane_geom.xyz.dir/cyanomethane_884.chk
%nproc=8
%mem=16000MB
#p B2PLYPD3/Def2QZVP 

cyanomethane

0 1
C  -6.588939  -1.113775   1.165121
C  -5.204449  -0.795170   0.893734
N  -4.096385  -0.536024   0.711711
H  -6.827710  -1.200433   2.262393
H  -6.838030  -2.041659   0.696508
H  -7.228070  -0.337858   0.785550
