%chk=/home/boittier/MDCM/nms_sampling/cyanomethane_geom.xyz.dir/cyanomethane_3120.chk
%nproc=8
%mem=16000MB
#p B2PLYPD3/Def2QZVP 

cyanomethane

0 1
C  -6.576155  -1.120877   1.157196
C  -5.205641  -0.734236   0.904183
N  -4.107495  -0.569818   0.710596
H  -6.934672  -1.284295   2.214944
H  -6.698022  -2.109033   0.685127
H  -7.243436  -0.344538   0.814285
