%chk=/home/boittier/MDCM/nms_sampling/cyanomethane_geom.xyz.dir/cyanomethane_3061.chk
%nproc=8
%mem=16000MB
#p B2PLYPD3/Def2QZVP 

cyanomethane

0 1
C  -6.594790  -1.109537   1.157881
C  -5.200844  -0.813487   0.851368
N  -4.082344  -0.530632   0.738054
H  -6.966487  -1.153186   2.327254
H  -6.781831  -2.058885   0.804114
H  -7.313939  -0.305832   0.840785

