%chk=/home/boittier/MDCM/nms_sampling/cyanomethane_geom.xyz.dir/cyanomethane_1022.chk
%nproc=8
%mem=16000MB
#p B2PLYPD3/Def2QZVP 

cyanomethane

0 1
C  -6.590394  -1.109860   1.173165
C  -5.203604  -0.800908   0.901537
N  -4.094341  -0.531210   0.703563
H  -6.746304  -1.242876   2.223987
H  -6.934130  -2.046751   0.653103
H  -7.233093  -0.322700   0.791404

