%chk=/home/boittier/MDCM/nms_sampling/cyanomethane_geom.xyz.dir/cyanomethane_1368.chk
%nproc=8
%mem=16000MB
#p B2PLYPD3/Def2QZVP 

cyanomethane

0 1
C  -6.588309  -1.113636   1.151232
C  -5.205561  -0.777135   0.921922
N  -4.095041  -0.546181   0.696114
H  -6.796360  -1.256903   2.210652
H  -6.827483  -1.987364   0.703816
H  -7.282716  -0.394828   0.855446
