%chk=/home/boittier/MDCM/nms_sampling/cyanomethane_geom.xyz.dir/cyanomethane_3249.chk
%nproc=8
%mem=16000MB
#p B2PLYPD3/Def2QZVP 

cyanomethane

0 1
C  -6.601099  -1.107079   1.153297
C  -5.201366  -0.792808   0.866451
N  -4.104247  -0.539787   0.731690
H  -6.872340  -1.246569   2.318611
H  -6.656888  -2.092332   0.746081
H  -7.144002  -0.305023   0.868371
