%chk=/home/boittier/MDCM/nms_sampling/cyanomethane_geom.xyz.dir/cyanomethane_779.chk
%nproc=8
%mem=16000MB
#p B2PLYPD3/Def2QZVP 

cyanomethane

0 1
C  -6.591899  -1.112028   1.160484
C  -5.202470  -0.797935   0.900009
N  -4.096690  -0.534252   0.708034
H  -6.805759  -1.216736   2.247048
H  -6.847613  -2.023269   0.706822
H  -7.223918  -0.348115   0.817358

