%chk=/home/boittier/MDCM/nms_sampling/cyanomethane_geom.xyz.dir/cyanomethane_619.chk
%nproc=8
%mem=16000MB
#p B2PLYPD3/Def2QZVP 

cyanomethane

0 1
C  -6.597284  -1.113041   1.162059
C  -5.200854  -0.795772   0.890029
N  -4.090329  -0.535859   0.712886
H  -6.815843  -1.233342   2.250852
H  -6.850874  -2.005405   0.703238
H  -7.253643  -0.341877   0.846615

