%chk=/home/boittier/MDCM/nms_sampling/cyanomethane_geom.xyz.dir/cyanomethane_1662.chk
%nproc=8
%mem=16000MB
#p B2PLYPD3/Def2QZVP 

cyanomethane

0 1
C  -6.596096  -1.104330   1.166948
C  -5.202990  -0.823675   0.901204
N  -4.100926  -0.521645   0.704221
H  -6.688239  -1.232860   2.197884
H  -6.843173  -2.013543   0.694353
H  -7.228178  -0.298203   0.845875
