%chk=/home/boittier/MDCM/nms_sampling/cyanomethane_geom.xyz.dir/cyanomethane_3588.chk
%nproc=8
%mem=16000MB
#p B2PLYPD3/Def2QZVP 

cyanomethane

0 1
C  -6.602626  -1.108793   1.140009
C  -5.194043  -0.790393   0.985062
N  -4.086177  -0.538588   0.666030
H  -6.839009  -1.226865   2.255778
H  -6.861726  -2.138321   0.628811
H  -7.297165  -0.263779   0.723602
