%chk=/home/boittier/MDCM/nms_sampling/cyanomethane_geom.xyz.dir/cyanomethane_1647.chk
%nproc=8
%mem=16000MB
#p B2PLYPD3/Def2QZVP 

cyanomethane

0 1
C  -6.609621  -1.121210   1.176281
C  -5.200455  -0.751551   0.895893
N  -4.085814  -0.557702   0.704559
H  -6.686090  -1.283581   2.259325
H  -6.888071  -2.089413   0.624158
H  -7.264057  -0.322003   0.786985
