%chk=/home/boittier/MDCM/nms_sampling/cyanomethane_geom.xyz.dir/cyanomethane_3485.chk
%nproc=8
%mem=16000MB
#p B2PLYPD3/Def2QZVP 

cyanomethane

0 1
C  -6.599534  -1.131048   1.198049
C  -5.201308  -0.727126   0.900122
N  -4.083179  -0.571631   0.700688
H  -6.739141  -1.253012   2.202101
H  -6.893670  -2.108339   0.547124
H  -7.354323  -0.312518   0.671705
