%chk=/home/boittier/MDCM/nms_sampling/cyanomethane_geom.xyz.dir/cyanomethane_2475.chk
%nproc=8
%mem=16000MB
#p B2PLYPD3/Def2QZVP 

cyanomethane

0 1
C  -6.629790  -1.099412   1.154752
C  -5.198755  -0.784215   0.956965
N  -4.077696  -0.546547   0.671672
H  -6.562220  -1.308206   2.204099
H  -6.785591  -2.053398   0.628326
H  -7.383452  -0.342633   0.823706
