%chk=/home/boittier/MDCM/nms_sampling/cyanomethane_geom.xyz.dir/cyanomethane_107.chk
%nproc=8
%mem=16000MB
#p B2PLYPD3/Def2QZVP 

cyanomethane

0 1
C  -6.597027  -1.103786   1.172285
C  -5.201936  -0.802873   0.889953
N  -4.097509  -0.533379   0.712175
H  -6.768286  -1.241533   2.237554
H  -6.812715  -2.084573   0.673621
H  -7.228604  -0.313252   0.790178

