%chk=/home/boittier/MDCM/nms_sampling/cyanomethane_geom.xyz.dir/cyanomethane_1957.chk
%nproc=8
%mem=16000MB
#p B2PLYPD3/Def2QZVP 

cyanomethane

0 1
C  -6.607447  -1.114153   1.178873
C  -5.198967  -0.806593   0.877921
N  -4.093829  -0.528600   0.715041
H  -6.694765  -1.221331   2.205582
H  -6.880019  -1.994605   0.684634
H  -7.195576  -0.324519   0.826571
