%chk=/home/boittier/MDCM/nms_sampling/cyanomethane_geom.xyz.dir/cyanomethane_545.chk
%nproc=8
%mem=16000MB
#p B2PLYPD3/Def2QZVP 

cyanomethane

0 1
C  -6.594509  -1.118027   1.169411
C  -5.202515  -0.786378   0.900876
N  -4.092082  -0.539802   0.703525
H  -6.732598  -1.227920   2.223401
H  -6.901180  -2.022214   0.677334
H  -7.274624  -0.323439   0.811811
