%chk=/home/boittier/MDCM/nms_sampling/cyanomethane_geom.xyz.dir/cyanomethane_3584.chk
%nproc=8
%mem=16000MB
#p B2PLYPD3/Def2QZVP 

cyanomethane

0 1
C  -6.598250  -1.132230   1.175888
C  -5.189359  -0.737594   0.894704
N  -4.087076  -0.567189   0.702822
H  -6.725486  -1.221229   2.197311
H  -6.934313  -2.013920   0.696062
H  -7.431271  -0.376283   0.799704
