%chk=/home/boittier/MDCM/nms_sampling/cyanomethane_geom.xyz.dir/cyanomethane_1620.chk
%nproc=8
%mem=16000MB
#p B2PLYPD3/Def2QZVP 

cyanomethane

0 1
C  -6.585747  -1.121470   1.180681
C  -5.203619  -0.809159   0.874292
N  -4.101137  -0.527984   0.718738
H  -6.767722  -1.153732   2.264790
H  -6.872517  -1.999600   0.673107
H  -7.235575  -0.289804   0.763115
