%chk=/home/boittier/MDCM/nms_sampling/cyanomethane_geom.xyz.dir/cyanomethane_3216.chk
%nproc=8
%mem=16000MB
#p B2PLYPD3/Def2QZVP 

cyanomethane

0 1
C  -6.595914  -1.124903   1.177885
C  -5.208381  -0.724817   0.893145
N  -4.096608  -0.576287   0.706237
H  -6.681232  -1.222647   2.169538
H  -6.751455  -2.131368   0.724433
H  -7.322940  -0.373922   0.749752

