%chk=/home/boittier/MDCM/nms_sampling/cyanomethane_geom.xyz.dir/cyanomethane_1827.chk
%nproc=8
%mem=16000MB
#p B2PLYPD3/Def2QZVP 

cyanomethane

0 1
C  -6.597304  -1.125901   1.166833
C  -5.207026  -0.797289   0.877887
N  -4.095732  -0.532958   0.720717
H  -6.812960  -1.176791   2.232337
H  -6.805570  -2.014336   0.725906
H  -7.149870  -0.267932   0.830823
