%chk=/home/boittier/MDCM/nms_sampling/cyanomethane_geom.xyz.dir/cyanomethane_1433.chk
%nproc=8
%mem=16000MB
#p B2PLYPD3/Def2QZVP 

cyanomethane

0 1
C  -6.590247  -1.133375   1.162291
C  -5.203170  -0.759373   0.907688
N  -4.098853  -0.552252   0.701208
H  -6.746910  -1.205247   2.235482
H  -6.874004  -1.987530   0.690772
H  -7.236989  -0.346943   0.812470
