%chk=/home/boittier/MDCM/nms_sampling/cyanomethane_geom.xyz.dir/cyanomethane_1012.chk
%nproc=8
%mem=16000MB
#p B2PLYPD3/Def2QZVP 

cyanomethane

0 1
C  -6.605101  -1.119646   1.168910
C  -5.200377  -0.795687   0.891929
N  -4.088497  -0.533132   0.711726
H  -6.800009  -1.214853   2.261930
H  -6.878070  -2.029377   0.663626
H  -7.179227  -0.294180   0.799033
