%chk=/home/boittier/MDCM/nms_sampling/cyanomethane_geom.xyz.dir/cyanomethane_1351.chk
%nproc=8
%mem=16000MB
#p B2PLYPD3/Def2QZVP 

cyanomethane

0 1
C  -6.592247  -1.102710   1.172417
C  -5.205881  -0.790438   0.928366
N  -4.096511  -0.540463   0.690207
H  -6.723046  -1.249749   2.200996
H  -6.828248  -2.125851   0.624023
H  -7.282939  -0.311785   0.724883
