%chk=/home/boittier/MDCM/nms_sampling/cyanomethane_geom.xyz.dir/cyanomethane_3303.chk
%nproc=8
%mem=16000MB
#p B2PLYPD3/Def2QZVP 

cyanomethane

0 1
C  -6.616724  -1.111184   1.181857
C  -5.195850  -0.804297   0.833218
N  -4.080602  -0.532315   0.736565
H  -6.689741  -1.218698   2.246993
H  -6.905821  -2.041987   0.773945
H  -7.282610  -0.314139   0.881753
