%chk=/home/boittier/MDCM/nms_sampling/cyanomethane_geom.xyz.dir/cyanomethane_3301.chk
%nproc=8
%mem=16000MB
#p B2PLYPD3/Def2QZVP 

cyanomethane

0 1
C  -6.615707  -1.106035   1.171357
C  -5.200168  -0.769789   0.942936
N  -4.083528  -0.553428   0.680232
H  -6.661285  -1.269556   2.152458
H  -6.781785  -2.074404   0.615394
H  -7.359311  -0.363445   0.742560

