%chk=/home/boittier/MDCM/nms_sampling/cyanomethane_geom.xyz.dir/cyanomethane_2316.chk
%nproc=8
%mem=16000MB
#p B2PLYPD3/Def2QZVP 

cyanomethane

0 1
C  -6.591213  -1.106734   1.167274
C  -5.204256  -0.772701   0.915519
N  -4.101397  -0.550818   0.695482
H  -6.683510  -1.288404   2.165195
H  -6.795011  -2.058171   0.673129
H  -7.317908  -0.361190   0.826625

