%chk=/home/boittier/MDCM/nms_sampling/cyanomethane_geom.xyz.dir/cyanomethane_2207.chk
%nproc=8
%mem=16000MB
#p B2PLYPD3/Def2QZVP 

cyanomethane

0 1
C  -6.586379  -1.128516   1.169840
C  -5.202310  -0.789739   0.869115
N  -4.099744  -0.535813   0.723668
H  -6.828671  -1.194234   2.258770
H  -6.885397  -1.981188   0.707868
H  -7.187410  -0.301582   0.842990
