%chk=/home/boittier/MDCM/nms_sampling/cyanomethane_geom.xyz.dir/cyanomethane_1439.chk
%nproc=8
%mem=16000MB
#p B2PLYPD3/Def2QZVP 

cyanomethane

0 1
C  -6.583084  -1.114702   1.164235
C  -5.206918  -0.801620   0.900338
N  -4.099750  -0.528642   0.706522
H  -6.780143  -1.244498   2.282387
H  -6.939335  -2.017075   0.649955
H  -7.167670  -0.319039   0.817920
