%chk=/home/boittier/MDCM/nms_sampling/cyanomethane_geom.xyz.dir/cyanomethane_415.chk
%nproc=8
%mem=16000MB
#p B2PLYPD3/Def2QZVP 

cyanomethane

0 1
C  -6.596506  -1.112062   1.169842
C  -5.201327  -0.772000   0.904008
N  -4.090440  -0.548858   0.703099
H  -6.769049  -1.280938   2.222874
H  -6.858229  -2.062629   0.644424
H  -7.294505  -0.338504   0.807473

