%chk=/home/boittier/MDCM/nms_sampling/cyanomethane_geom.xyz.dir/cyanomethane_300.chk
%nproc=8
%mem=16000MB
#p B2PLYPD3/Def2QZVP 

cyanomethane

0 1
C  -6.604733  -1.106826   1.162373
C  -5.199050  -0.817355   0.914879
N  -4.091817  -0.523868   0.700423
H  -6.782121  -1.219394   2.235725
H  -6.846218  -2.056896   0.666740
H  -7.203269  -0.279729   0.792211

