%chk=/home/boittier/MDCM/nms_sampling/cyanomethane_geom.xyz.dir/cyanomethane_2000.chk
%nproc=8
%mem=16000MB
#p B2PLYPD3/Def2QZVP 

cyanomethane

0 1
C  -6.582245  -1.110067   1.166018
C  -5.208553  -0.796296   0.897663
N  -4.099559  -0.536209   0.711858
H  -6.877951  -1.224559   2.270194
H  -6.787845  -2.037881   0.649249
H  -7.216327  -0.339030   0.772909
