%chk=/home/boittier/MDCM/nms_sampling/cyanomethane_geom.xyz.dir/cyanomethane_1263.chk
%nproc=8
%mem=16000MB
#p B2PLYPD3/Def2QZVP 

cyanomethane

0 1
C  -6.612159  -1.120923   1.175097
C  -5.195602  -0.752529   0.901922
N  -4.088265  -0.557416   0.702940
H  -6.720735  -1.259400   2.223020
H  -6.863723  -2.118549   0.650685
H  -7.246659  -0.314997   0.764660

