%chk=/home/boittier/MDCM/nms_sampling/cyanomethane_geom.xyz.dir/cyanomethane_826.chk
%nproc=8
%mem=16000MB
#p B2PLYPD3/Def2QZVP 

cyanomethane

0 1
C  -6.596490  -1.109354   1.165258
C  -5.202536  -0.791904   0.907379
N  -4.097206  -0.539235   0.701036
H  -6.709466  -1.255326   2.216673
H  -6.823331  -2.037186   0.674669
H  -7.280100  -0.322753   0.828969
