%chk=/home/boittier/MDCM/nms_sampling/cyanomethane_geom.xyz.dir/cyanomethane_3597.chk
%nproc=8
%mem=16000MB
#p B2PLYPD3/Def2QZVP 

cyanomethane

0 1
C  -6.588234  -1.094184   1.167494
C  -5.208417  -0.824711   0.860570
N  -4.093879  -0.524780   0.727546
H  -6.798421  -1.266851   2.241607
H  -6.794713  -1.939723   0.724344
H  -7.296764  -0.415176   0.910010

