%chk=/home/boittier/MDCM/nms_sampling/cyanomethane_geom.xyz.dir/cyanomethane_347.chk
%nproc=8
%mem=16000MB
#p B2PLYPD3/Def2QZVP 

cyanomethane

0 1
C  -6.603387  -1.115524   1.173560
C  -5.201711  -0.808019   0.908034
N  -4.090990  -0.528547   0.700363
H  -6.716615  -1.180964   2.209777
H  -6.875496  -2.034586   0.668590
H  -7.234961  -0.289614   0.759232
