%chk=/home/boittier/MDCM/nms_sampling/cyanomethane_geom.xyz.dir/cyanomethane_3386.chk
%nproc=8
%mem=16000MB
#p B2PLYPD3/Def2QZVP 

cyanomethane

0 1
C  -6.609623  -1.116904   1.173439
C  -5.198861  -0.754064   0.889820
N  -4.077899  -0.562702   0.710091
H  -6.772538  -1.204956   2.310797
H  -6.790136  -2.103596   0.669711
H  -7.408880  -0.361221   0.722740
