%chk=/home/boittier/MDCM/nms_sampling/cyanomethane_geom.xyz.dir/cyanomethane_2835.chk
%nproc=8
%mem=16000MB
#p B2PLYPD3/Def2QZVP 

cyanomethane

0 1
C  -6.623601  -1.112899   1.167309
C  -5.190212  -0.784644   0.932442
N  -4.082231  -0.538156   0.682212
H  -6.586105  -1.262115   2.199623
H  -7.005399  -2.040233   0.653567
H  -7.251878  -0.358814   0.797131
