%chk=/home/boittier/MDCM/nms_sampling/cyanomethane_geom.xyz.dir/cyanomethane_266.chk
%nproc=8
%mem=16000MB
#p B2PLYPD3/Def2QZVP 

cyanomethane

0 1
C  -6.595241  -1.124988   1.160372
C  -5.205034  -0.765456   0.907827
N  -4.096785  -0.550482   0.702075
H  -6.742346  -1.229498   2.218143
H  -6.830857  -2.040004   0.705462
H  -7.229484  -0.321010   0.827456
