%chk=/home/boittier/MDCM/nms_sampling/cyanomethane_geom.xyz.dir/cyanomethane_2932.chk
%nproc=8
%mem=16000MB
#p B2PLYPD3/Def2QZVP 

cyanomethane

0 1
C  -6.610366  -1.121768   1.145664
C  -5.202049  -0.780491   0.977059
N  -4.082279  -0.541724   0.662047
H  -6.625015  -1.192190   2.154413
H  -6.936690  -2.034297   0.715434
H  -7.297941  -0.328935   0.787556
