%chk=/home/boittier/MDCM/nms_sampling/cyanomethane_geom.xyz.dir/cyanomethane_2007.chk
%nproc=8
%mem=16000MB
#p B2PLYPD3/Def2QZVP 

cyanomethane

0 1
C  -6.608555  -1.127319   1.170938
C  -5.197964  -0.784715   0.878812
N  -4.091993  -0.537870   0.720397
H  -6.831542  -1.194042   2.280042
H  -6.843186  -2.061032   0.676227
H  -7.120358  -0.263809   0.783472

