%chk=/home/boittier/MDCM/nms_sampling/cyanomethane_geom.xyz.dir/cyanomethane_3217.chk
%nproc=8
%mem=16000MB
#p B2PLYPD3/Def2QZVP 

cyanomethane

0 1
C  -6.581916  -1.119638   1.191210
C  -5.207208  -0.810236   0.860441
N  -4.107432  -0.524835   0.720759
H  -6.639980  -1.231953   2.166525
H  -6.951672  -1.987827   0.675627
H  -7.193842  -0.264372   0.856041
