%chk=/home/boittier/MDCM/nms_sampling/cyanomethane_geom.xyz.dir/cyanomethane_1519.chk
%nproc=8
%mem=16000MB
#p B2PLYPD3/Def2QZVP 

cyanomethane

0 1
C  -6.586588  -1.116060   1.178528
C  -5.201694  -0.791267   0.877442
N  -4.099429  -0.534864   0.717071
H  -6.787068  -1.270352   2.235310
H  -6.930349  -2.030995   0.638305
H  -7.192751  -0.302233   0.828578
