%chk=/home/boittier/MDCM/nms_sampling/cyanomethane_geom.xyz.dir/cyanomethane_3281.chk
%nproc=8
%mem=16000MB
#p B2PLYPD3/Def2QZVP 

cyanomethane

0 1
C  -6.619973  -1.111043   1.141330
C  -5.194197  -0.780496   0.980976
N  -4.083168  -0.544349   0.665480
H  -6.722790  -1.238981   2.217615
H  -6.820116  -2.142388   0.660191
H  -7.283970  -0.260002   0.758702

