%chk=/home/boittier/MDCM/nms_sampling/cyanomethane_geom.xyz.dir/cyanomethane_2610.chk
%nproc=8
%mem=16000MB
#p B2PLYPD3/Def2QZVP 

cyanomethane

0 1
C  -6.627088  -1.097175   1.165669
C  -5.190079  -0.815660   0.904535
N  -4.083701  -0.524341   0.706016
H  -6.791375  -1.310742   2.209540
H  -6.834750  -2.012826   0.628952
H  -7.157795  -0.347642   0.852363
