%chk=/home/boittier/MDCM/nms_sampling/cyanomethane_geom.xyz.dir/cyanomethane_1760.chk
%nproc=8
%mem=16000MB
#p B2PLYPD3/Def2QZVP 

cyanomethane

0 1
C  -6.585289  -1.104403   1.150434
C  -5.207470  -0.839228   0.919930
N  -4.098325  -0.512816   0.698799
H  -6.794626  -1.174341   2.247693
H  -6.861248  -2.020501   0.731212
H  -7.218242  -0.291116   0.819970

