%chk=/home/boittier/MDCM/nms_sampling/cyanomethane_geom.xyz.dir/cyanomethane_601.chk
%nproc=8
%mem=16000MB
#p B2PLYPD3/Def2QZVP 

cyanomethane

0 1
C  -6.593874  -1.106692   1.164427
C  -5.201356  -0.808623   0.911163
N  -4.092559  -0.528704   0.699851
H  -6.757982  -1.241016   2.242457
H  -6.900728  -2.043151   0.662175
H  -7.265568  -0.308941   0.807857

