%chk=/home/boittier/MDCM/nms_sampling/cyanomethane_geom.xyz.dir/cyanomethane_2206.chk
%nproc=8
%mem=16000MB
#p B2PLYPD3/Def2QZVP 

cyanomethane

0 1
C  -6.583471  -1.125374   1.167477
C  -5.207120  -0.773520   0.919297
N  -4.097806  -0.544127   0.696649
H  -6.797332  -1.188003   2.232083
H  -6.906224  -2.078383   0.662924
H  -7.203103  -0.309937   0.727534

