%chk=/home/boittier/MDCM/nms_sampling/cyanomethane_geom.xyz.dir/cyanomethane_35.chk
%nproc=8
%mem=16000MB
#p B2PLYPD3/Def2QZVP 

cyanomethane

0 1
C  -6.601729  -1.120662   1.172701
C  -5.198381  -0.773635   0.896571
N  -4.091997  -0.546936   0.705285
H  -6.717971  -1.236151   2.220358
H  -6.875390  -2.032462   0.670103
H  -7.278790  -0.326750   0.806039
