%chk=/home/boittier/MDCM/nms_sampling/cyanomethane_geom.xyz.dir/cyanomethane_42.chk
%nproc=8
%mem=16000MB
#p B2PLYPD3/Def2QZVP 

cyanomethane

0 1
C  -6.597821  -1.114460   1.166325
C  -5.200892  -0.794643   0.918051
N  -4.089943  -0.535057   0.693724
H  -6.703082  -1.218916   2.237439
H  -6.936513  -2.023147   0.662910
H  -7.279696  -0.337082   0.784296
