%chk=/home/boittier/MDCM/nms_sampling/cyanomethane_geom.xyz.dir/cyanomethane_2377.chk
%nproc=8
%mem=16000MB
#p B2PLYPD3/Def2QZVP 

cyanomethane

0 1
C  -6.607230  -1.099451   1.163771
C  -5.201399  -0.815394   0.908795
N  -4.088352  -0.524872   0.701369
H  -6.729865  -1.269791   2.214195
H  -6.881670  -2.074269   0.679631
H  -7.208362  -0.304588   0.832959
