%chk=/home/boittier/MDCM/nms_sampling/cyanomethane_geom.xyz.dir/cyanomethane_2985.chk
%nproc=8
%mem=16000MB
#p B2PLYPD3/Def2QZVP 

cyanomethane

0 1
C  -6.594030  -1.106827   1.177197
C  -5.194454  -0.757636   0.875318
N  -4.092468  -0.563135   0.715326
H  -6.751572  -1.270287   2.230944
H  -6.783145  -2.010580   0.687696
H  -7.473664  -0.455404   0.816999
