%chk=/home/boittier/MDCM/nms_sampling/cyanomethane_geom.xyz.dir/cyanomethane_3414.chk
%nproc=8
%mem=16000MB
#p B2PLYPD3/Def2QZVP 

cyanomethane

0 1
C  -6.573633  -1.125431   1.155966
C  -5.204155  -0.814417   0.935521
N  -4.101438  -0.518795   0.685415
H  -6.750623  -1.181047   2.164995
H  -7.063742  -1.903872   0.703991
H  -7.195396  -0.346261   0.842626

