%chk=/home/boittier/MDCM/nms_sampling/cyanomethane_geom.xyz.dir/cyanomethane_2466.chk
%nproc=8
%mem=16000MB
#p B2PLYPD3/Def2QZVP 

cyanomethane

0 1
C  -6.602048  -1.148285   1.154318
C  -5.199557  -0.726442   0.911654
N  -4.083043  -0.570368   0.701879
H  -6.840674  -1.133256   2.320096
H  -6.847634  -2.035043   0.718615
H  -7.293875  -0.349182   0.738524
