%chk=/home/boittier/MDCM/nms_sampling/cyanomethane_geom.xyz.dir/cyanomethane_1195.chk
%nproc=8
%mem=16000MB
#p B2PLYPD3/Def2QZVP 

cyanomethane

0 1
C  -6.591083  -1.109865   1.167845
C  -5.202315  -0.781705   0.902832
N  -4.097731  -0.545152   0.704873
H  -6.768504  -1.241914   2.271071
H  -6.814187  -2.073918   0.652682
H  -7.292532  -0.336945   0.772271

