%chk=/home/boittier/MDCM/nms_sampling/cyanomethane_geom.xyz.dir/cyanomethane_1026.chk
%nproc=8
%mem=16000MB
#p B2PLYPD3/Def2QZVP 

cyanomethane

0 1
C  -6.602147  -1.115471   1.170804
C  -5.202480  -0.804837   0.915180
N  -4.092060  -0.528783   0.697621
H  -6.731646  -1.208862   2.234769
H  -6.888106  -2.044063   0.633210
H  -7.198466  -0.279010   0.759646
