%chk=/home/boittier/MDCM/nms_sampling/cyanomethane_geom.xyz.dir/cyanomethane_1229.chk
%nproc=8
%mem=16000MB
#p B2PLYPD3/Def2QZVP 

cyanomethane

0 1
C  -6.593991  -1.121115   1.172653
C  -5.203659  -0.760656   0.892339
N  -4.102410  -0.553408   0.706512
H  -6.663042  -1.237143   2.197668
H  -6.856314  -2.064833   0.712994
H  -7.235420  -0.355283   0.809031

