%chk=/home/boittier/MDCM/nms_sampling/cyanomethane_geom.xyz.dir/cyanomethane_607.chk
%nproc=8
%mem=16000MB
#p B2PLYPD3/Def2QZVP 

cyanomethane

0 1
C  -6.593624  -1.105383   1.160278
C  -5.202235  -0.796851   0.925519
N  -4.098391  -0.535893   0.691545
H  -6.704945  -1.251704   2.213577
H  -6.858920  -2.047987   0.675014
H  -7.271340  -0.344816   0.808213
