%chk=/home/boittier/MDCM/nms_sampling/cyanomethane_geom.xyz.dir/cyanomethane_1180.chk
%nproc=8
%mem=16000MB
#p B2PLYPD3/Def2QZVP 

cyanomethane

0 1
C  -6.597768  -1.107182   1.164898
C  -5.201888  -0.801663   0.919018
N  -4.096335  -0.533701   0.695945
H  -6.725253  -1.227889   2.249891
H  -6.832931  -2.059892   0.649159
H  -7.261133  -0.313498   0.770653
