%chk=/home/boittier/MDCM/nms_sampling/cyanomethane_geom.xyz.dir/cyanomethane_3013.chk
%nproc=8
%mem=16000MB
#p B2PLYPD3/Def2QZVP 

cyanomethane

0 1
C  -6.575858  -1.107583   1.168427
C  -5.199941  -0.770399   0.937887
N  -4.102354  -0.545488   0.682360
H  -6.724644  -1.330738   2.184981
H  -7.023057  -2.095977   0.600127
H  -7.271975  -0.350875   0.790075
