%chk=/home/boittier/MDCM/nms_sampling/cyanomethane_geom.xyz.dir/cyanomethane_1576.chk
%nproc=8
%mem=16000MB
#p B2PLYPD3/Def2QZVP 

cyanomethane

0 1
C  -6.592160  -1.111267   1.146149
C  -5.206837  -0.781095   0.942774
N  -4.097872  -0.542504   0.684653
H  -6.731834  -1.256982   2.201789
H  -6.846873  -2.038374   0.707652
H  -7.225532  -0.368786   0.836601
