%chk=/home/boittier/MDCM/nms_sampling/cyanomethane_geom.xyz.dir/cyanomethane_3297.chk
%nproc=8
%mem=16000MB
#p B2PLYPD3/Def2QZVP 

cyanomethane

0 1
C  -6.587618  -1.122118   1.166398
C  -5.202107  -0.801285   0.921379
N  -4.090913  -0.528645   0.697629
H  -6.872461  -1.207383   2.225977
H  -6.938846  -2.044765   0.622848
H  -7.201822  -0.240197   0.764419
