%chk=/home/boittier/MDCM/nms_sampling/cyanomethane_geom.xyz.dir/cyanomethane_1777.chk
%nproc=8
%mem=16000MB
#p B2PLYPD3/Def2QZVP 

cyanomethane

0 1
C  -6.587048  -1.125816   1.169037
C  -5.203894  -0.774951   0.880175
N  -4.102488  -0.543979   0.717478
H  -6.794366  -1.242681   2.271839
H  -6.856904  -2.005507   0.662860
H  -7.185295  -0.312678   0.836553

