%chk=/home/boittier/MDCM/nms_sampling/cyanomethane_geom.xyz.dir/cyanomethane_2064.chk
%nproc=8
%mem=16000MB
#p B2PLYPD3/Def2QZVP 

cyanomethane

0 1
C  -6.607232  -1.125302   1.175640
C  -5.202135  -0.771253   0.891569
N  -4.089432  -0.548495   0.708846
H  -6.715298  -1.186101   2.258994
H  -6.831567  -2.070070   0.673833
H  -7.250407  -0.300804   0.747900

