%chk=/home/boittier/MDCM/nms_sampling/cyanomethane_geom.xyz.dir/cyanomethane_1637.chk
%nproc=8
%mem=16000MB
#p B2PLYPD3/Def2QZVP 

cyanomethane

0 1
C  -6.597320  -1.102738   1.168923
C  -5.202100  -0.803999   0.884177
N  -4.100949  -0.532444   0.716016
H  -6.763902  -1.268113   2.280254
H  -6.794049  -2.065842   0.656639
H  -7.198847  -0.315158   0.820080

