%chk=/home/boittier/MDCM/nms_sampling/cyanomethane_geom.xyz.dir/cyanomethane_841.chk
%nproc=8
%mem=16000MB
#p B2PLYPD3/Def2QZVP 

cyanomethane

0 1
C  -6.597198  -1.112965   1.173361
C  -5.201113  -0.786128   0.885012
N  -4.091910  -0.539926   0.713103
H  -6.769815  -1.247704   2.235114
H  -6.888244  -2.057476   0.678616
H  -7.236823  -0.332189   0.809602

