%chk=/home/boittier/MDCM/nms_sampling/cyanomethane_geom.xyz.dir/cyanomethane_1567.chk
%nproc=8
%mem=16000MB
#p B2PLYPD3/Def2QZVP 

cyanomethane

0 1
C  -6.613645  -1.105835   1.166231
C  -5.197616  -0.800522   0.938316
N  -4.087431  -0.535461   0.683843
H  -6.671650  -1.189016   2.198048
H  -6.833655  -2.077595   0.671816
H  -7.298730  -0.341083   0.719023
