%chk=/home/boittier/MDCM/nms_sampling/cyanomethane_geom.xyz.dir/cyanomethane_617.chk
%nproc=8
%mem=16000MB
#p B2PLYPD3/Def2QZVP 

cyanomethane

0 1
C  -6.591897  -1.116056   1.165158
C  -5.203152  -0.799918   0.891843
N  -4.094614  -0.533534   0.713055
H  -6.836559  -1.199825   2.264464
H  -6.829157  -2.014814   0.684740
H  -7.232944  -0.315998   0.801524
