%chk=/home/boittier/MDCM/nms_sampling/cyanomethane_geom.xyz.dir/cyanomethane_1863.chk
%nproc=8
%mem=16000MB
#p B2PLYPD3/Def2QZVP 

cyanomethane

0 1
C  -6.599344  -1.117432   1.180993
C  -5.201217  -0.804949   0.870312
N  -4.089859  -0.530559   0.719007
H  -6.732400  -1.171978   2.261431
H  -6.904508  -2.022582   0.694612
H  -7.260652  -0.311955   0.776705
