%chk=/home/boittier/MDCM/nms_sampling/cyanomethane_geom.xyz.dir/cyanomethane_3113.chk
%nproc=8
%mem=16000MB
#p B2PLYPD3/Def2QZVP 

cyanomethane

0 1
C  -6.599823  -1.127994   1.151418
C  -5.198249  -0.784837   0.972482
N  -4.081039  -0.536038   0.670773
H  -6.843012  -1.186006   2.257512
H  -6.979361  -2.090048   0.600563
H  -7.229667  -0.227673   0.701621
