%chk=/home/boittier/MDCM/nms_sampling/cyanomethane_geom.xyz.dir/cyanomethane_3345.chk
%nproc=8
%mem=16000MB
#p B2PLYPD3/Def2QZVP 

cyanomethane

0 1
C  -6.601331  -1.079645   1.159724
C  -5.209122  -0.809229   0.959372
N  -4.096498  -0.531046   0.672471
H  -6.603746  -1.360676   2.164386
H  -6.829766  -2.144535   0.607271
H  -7.251398  -0.338460   0.800836
