%chk=/home/boittier/MDCM/nms_sampling/cyanomethane_geom.xyz.dir/cyanomethane_494.chk
%nproc=8
%mem=16000MB
#p B2PLYPD3/Def2QZVP 

cyanomethane

0 1
C  -6.599792  -1.113257   1.161824
C  -5.198071  -0.775333   0.909968
N  -4.092086  -0.547465   0.702620
H  -6.809925  -1.233101   2.251703
H  -6.819691  -2.068454   0.678682
H  -7.270314  -0.353513   0.779524
