%chk=/home/boittier/MDCM/nms_sampling/cyanomethane_geom.xyz.dir/cyanomethane_684.chk
%nproc=8
%mem=16000MB
#p B2PLYPD3/Def2QZVP 

cyanomethane

0 1
C  -6.601765  -1.113435   1.163483
C  -5.200688  -0.801538   0.916607
N  -4.089750  -0.529585   0.698107
H  -6.777172  -1.242283   2.215010
H  -6.912579  -2.031734   0.657134
H  -7.185936  -0.304954   0.810571
