%chk=/home/boittier/MDCM/nms_sampling/cyanomethane_geom.xyz.dir/cyanomethane_2527.chk
%nproc=8
%mem=16000MB
#p B2PLYPD3/Def2QZVP 

cyanomethane

0 1
C  -6.590700  -1.138224   1.171931
C  -5.207332  -0.714841   0.916284
N  -4.104731  -0.575757   0.698550
H  -6.772867  -1.232799   2.180695
H  -6.771606  -2.118707   0.652132
H  -7.173743  -0.325688   0.727720

