%chk=/home/boittier/MDCM/nms_sampling/cyanomethane_geom.xyz.dir/cyanomethane_3252.chk
%nproc=8
%mem=16000MB
#p B2PLYPD3/Def2QZVP 

cyanomethane

0 1
C  -6.616453  -1.104148   1.147346
C  -5.201911  -0.804990   0.894510
N  -4.083079  -0.532396   0.712385
H  -6.789884  -1.216295   2.196796
H  -6.782624  -2.048983   0.828890
H  -7.202840  -0.367411   0.893497
