%chk=/home/boittier/MDCM/nms_sampling/cyanomethane_geom.xyz.dir/cyanomethane_1324.chk
%nproc=8
%mem=16000MB
#p B2PLYPD3/Def2QZVP 

cyanomethane

0 1
C  -6.596166  -1.128553   1.175317
C  -5.203208  -0.756626   0.888129
N  -4.102002  -0.555990   0.709678
H  -6.684380  -1.228435   2.227764
H  -6.810033  -2.030019   0.670497
H  -7.246666  -0.323475   0.802210

