%chk=/home/boittier/MDCM/nms_sampling/cyanomethane_geom.xyz.dir/cyanomethane_2498.chk
%nproc=8
%mem=16000MB
#p B2PLYPD3/Def2QZVP 

cyanomethane

0 1
C  -6.583690  -1.095085   1.151997
C  -5.202902  -0.804561   0.972486
N  -4.104697  -0.535433   0.663603
H  -6.600466  -1.285075   2.203528
H  -6.848548  -1.982964   0.611085
H  -7.413434  -0.395349   0.805071
