%chk=/home/boittier/MDCM/nms_sampling/cyanomethane_geom.xyz.dir/cyanomethane_2265.chk
%nproc=8
%mem=16000MB
#p B2PLYPD3/Def2QZVP 

cyanomethane

0 1
C  -6.596848  -1.107139   1.172859
C  -5.201761  -0.771127   0.912030
N  -4.099888  -0.549532   0.697531
H  -6.690394  -1.315764   2.194007
H  -6.826497  -2.090653   0.619846
H  -7.262594  -0.326567   0.807215

