%chk=/home/boittier/MDCM/nms_sampling/cyanomethane_geom.xyz.dir/cyanomethane_2957.chk
%nproc=8
%mem=16000MB
#p B2PLYPD3/Def2QZVP 

cyanomethane

0 1
C  -6.627221  -1.102947   1.184372
C  -5.196583  -0.806965   0.838024
N  -4.077743  -0.532165   0.740264
H  -6.807844  -1.291983   2.313827
H  -6.764567  -2.041639   0.626143
H  -7.214686  -0.292197   0.848957
