%chk=/home/boittier/MDCM/nms_sampling/cyanomethane_geom.xyz.dir/cyanomethane_2054.chk
%nproc=8
%mem=16000MB
#p B2PLYPD3/Def2QZVP 

cyanomethane

0 1
C  -6.601460  -1.114585   1.170534
C  -5.194719  -0.808287   0.907431
N  -4.089740  -0.524880   0.701710
H  -6.783087  -1.211994   2.259782
H  -6.981835  -2.026530   0.638902
H  -7.188073  -0.317652   0.765110
