%chk=/home/boittier/MDCM/nms_sampling/cyanomethane_geom.xyz.dir/cyanomethane_1691.chk
%nproc=8
%mem=16000MB
#p B2PLYPD3/Def2QZVP 

cyanomethane

0 1
C  -6.583386  -1.132871   1.160958
C  -5.202420  -0.749475   0.902826
N  -4.102005  -0.556981   0.705145
H  -6.795904  -1.257401   2.231738
H  -6.875454  -2.026516   0.677549
H  -7.232182  -0.307479   0.848959
