%chk=/home/boittier/MDCM/nms_sampling/cyanomethane_geom.xyz.dir/cyanomethane_1534.chk
%nproc=8
%mem=16000MB
#p B2PLYPD3/Def2QZVP 

cyanomethane

0 1
C  -6.594595  -1.133389   1.169928
C  -5.201822  -0.765688   0.901881
N  -4.100438  -0.549184   0.705093
H  -6.756446  -1.185190   2.198732
H  -6.837576  -2.045897   0.694133
H  -7.203587  -0.279971   0.782064
