%chk=/home/boittier/MDCM/nms_sampling/cyanomethane_geom.xyz.dir/cyanomethane_3127.chk
%nproc=8
%mem=16000MB
#p B2PLYPD3/Def2QZVP 

cyanomethane

0 1
C  -6.597344  -1.106712   1.147452
C  -5.205005  -0.817428   0.882158
N  -4.102983  -0.527153   0.719275
H  -6.759054  -1.206051   2.262608
H  -6.722957  -2.019294   0.803490
H  -7.209364  -0.307753   0.913362

