%chk=/home/boittier/MDCM/nms_sampling/cyanomethane_geom.xyz.dir/cyanomethane_3451.chk
%nproc=8
%mem=16000MB
#p B2PLYPD3/Def2QZVP 

cyanomethane

0 1
C  -6.596007  -1.123037   1.200456
C  -5.209654  -0.787920   0.829511
N  -4.101750  -0.541125   0.740071
H  -6.698712  -1.113035   2.190304
H  -6.781909  -2.103873   0.772560
H  -7.185854  -0.302563   0.726699

