%chk=/home/boittier/MDCM/nms_sampling/cyanomethane_geom.xyz.dir/cyanomethane_2662.chk
%nproc=8
%mem=16000MB
#p B2PLYPD3/Def2QZVP 

cyanomethane

0 1
C  -6.600888  -1.110041   1.151896
C  -5.202726  -0.779781   0.952795
N  -4.104903  -0.541308   0.678020
H  -6.644408  -1.331302   2.243020
H  -6.844001  -2.057392   0.587637
H  -7.162330  -0.302622   0.832724
