%chk=/home/boittier/MDCM/nms_sampling/cyanomethane_geom.xyz.dir/cyanomethane_1840.chk
%nproc=8
%mem=16000MB
#p B2PLYPD3/Def2QZVP 

cyanomethane

0 1
C  -6.586220  -1.112385   1.170618
C  -5.206801  -0.784790   0.937998
N  -4.096225  -0.540494   0.683511
H  -6.700427  -1.246849   2.253311
H  -6.916796  -2.074809   0.577158
H  -7.284218  -0.310956   0.719283

