%chk=/home/boittier/MDCM/nms_sampling/cyanomethane_geom.xyz.dir/cyanomethane_2413.chk
%nproc=8
%mem=16000MB
#p B2PLYPD3/Def2QZVP 

cyanomethane

0 1
C  -6.588810  -1.108980   1.156035
C  -5.200868  -0.803767   0.886287
N  -4.104199  -0.533183   0.720975
H  -6.923379  -1.167235   2.239178
H  -6.732240  -2.092326   0.782194
H  -7.172364  -0.326424   0.795794
