%chk=/home/boittier/MDCM/nms_sampling/cyanomethane_geom.xyz.dir/cyanomethane_2550.chk
%nproc=8
%mem=16000MB
#p B2PLYPD3/Def2QZVP 

cyanomethane

0 1
C  -6.582251  -1.132388   1.191846
C  -5.208928  -0.712577   0.874112
N  -4.100455  -0.579887   0.711279
H  -6.633869  -1.292614   2.147141
H  -6.871640  -2.054870   0.660570
H  -7.352855  -0.375977   0.813550
