%chk=/home/boittier/MDCM/nms_sampling/cyanomethane_geom.xyz.dir/cyanomethane_2946.chk
%nproc=8
%mem=16000MB
#p B2PLYPD3/Def2QZVP 

cyanomethane

0 1
C  -6.602313  -1.103386   1.169541
C  -5.192806  -0.804973   0.866876
N  -4.088031  -0.532367   0.731958
H  -7.022846  -1.267557   2.250183
H  -6.763153  -2.073970   0.665566
H  -7.202450  -0.293701   0.828534

