%chk=/home/boittier/MDCM/nms_sampling/cyanomethane_geom.xyz.dir/cyanomethane_2463.chk
%nproc=8
%mem=16000MB
#p B2PLYPD3/Def2QZVP 

cyanomethane

0 1
C  -6.607846  -1.111025   1.193050
C  -5.203203  -0.806626   0.854439
N  -4.084369  -0.525165   0.727396
H  -6.749994  -1.252764   2.216051
H  -6.978379  -2.079565   0.654309
H  -7.116117  -0.290938   0.795788

