%chk=/home/boittier/MDCM/nms_sampling/cyanomethane_geom.xyz.dir/cyanomethane_3497.chk
%nproc=8
%mem=16000MB
#p B2PLYPD3/Def2QZVP 

cyanomethane

0 1
C  -6.582748  -1.138141   1.171752
C  -5.208718  -0.775281   0.842854
N  -4.095302  -0.538960   0.739578
H  -6.908504  -1.224752   2.345413
H  -6.939132  -1.955577   0.668712
H  -7.083250  -0.309208   0.864905
