%chk=/home/boittier/MDCM/nms_sampling/cyanomethane_geom.xyz.dir/cyanomethane_3482.chk
%nproc=8
%mem=16000MB
#p B2PLYPD3/Def2QZVP 

cyanomethane

0 1
C  -6.597472  -1.115819   1.196117
C  -5.193100  -0.798677   0.826098
N  -4.092782  -0.530549   0.744040
H  -6.854288  -1.253941   2.280653
H  -6.957056  -1.999415   0.634306
H  -7.165243  -0.341697   0.816267
