%chk=/home/boittier/MDCM/nms_sampling/cyanomethane_geom.xyz.dir/cyanomethane_1646.chk
%nproc=8
%mem=16000MB
#p B2PLYPD3/Def2QZVP 

cyanomethane

0 1
C  -6.612203  -1.112766   1.160517
C  -5.197061  -0.788944   0.931686
N  -4.088788  -0.535732   0.689619
H  -6.736231  -1.268587   2.221014
H  -6.904119  -2.038644   0.631546
H  -7.167554  -0.335078   0.799260
