%chk=/home/boittier/MDCM/nms_sampling/cyanomethane_geom.xyz.dir/cyanomethane_2519.chk
%nproc=8
%mem=16000MB
#p B2PLYPD3/Def2QZVP 

cyanomethane

0 1
C  -6.570781  -1.124668   1.162462
C  -5.204946  -0.782988   0.851340
N  -4.110250  -0.539850   0.737884
H  -6.944581  -1.241869   2.333271
H  -6.820857  -1.982688   0.696315
H  -7.146837  -0.322418   0.883220

