%chk=/home/boittier/MDCM/nms_sampling/cyanomethane_geom.xyz.dir/cyanomethane_1261.chk
%nproc=8
%mem=16000MB
#p B2PLYPD3/Def2QZVP 

cyanomethane

0 1
C  -6.582859  -1.123780   1.168168
C  -5.205712  -0.800792   0.883244
N  -4.099601  -0.529410   0.716643
H  -6.833768  -1.187562   2.251075
H  -6.905589  -1.972381   0.694362
H  -7.166837  -0.325478   0.818034
