%chk=/home/boittier/MDCM/nms_sampling/cyanomethane_geom.xyz.dir/cyanomethane_2920.chk
%nproc=8
%mem=16000MB
#p B2PLYPD3/Def2QZVP 

cyanomethane

0 1
C  -6.615462  -1.139129   1.150822
C  -5.198457  -0.750480   0.953195
N  -4.081679  -0.553401   0.676169
H  -6.690450  -1.238595   2.163999
H  -6.947528  -2.014411   0.678039
H  -7.209743  -0.285595   0.837654

