%chk=/home/boittier/MDCM/nms_sampling/cyanomethane_geom.xyz.dir/cyanomethane_511.chk
%nproc=8
%mem=16000MB
#p B2PLYPD3/Def2QZVP 

cyanomethane

0 1
C  -6.594267  -1.116750   1.165166
C  -5.204601  -0.780162   0.913590
N  -4.096714  -0.543388   0.696256
H  -6.677937  -1.233328   2.230308
H  -6.878263  -2.040951   0.677865
H  -7.265608  -0.335212   0.801688
