%chk=/home/boittier/MDCM/nms_sampling/cyanomethane_geom.xyz.dir/cyanomethane_2730.chk
%nproc=8
%mem=16000MB
#p B2PLYPD3/Def2QZVP 

cyanomethane

0 1
C  -6.574786  -1.115849   1.168793
C  -5.209455  -0.761622   0.913573
N  -4.102522  -0.559036   0.696461
H  -6.709386  -1.193966   2.284847
H  -6.787150  -2.094963   0.666204
H  -7.423237  -0.347876   0.715802
