%chk=/home/boittier/MDCM/nms_sampling/cyanomethane_geom.xyz.dir/cyanomethane_2290.chk
%nproc=8
%mem=16000MB
#p B2PLYPD3/Def2QZVP 

cyanomethane

0 1
C  -6.602656  -1.114311   1.168754
C  -5.196589  -0.770772   0.924208
N  -4.089483  -0.547158   0.690778
H  -6.718336  -1.266670   2.219069
H  -6.930464  -2.091652   0.634131
H  -7.269105  -0.329056   0.767977

