%chk=/home/boittier/MDCM/nms_sampling/cyanomethane_geom.xyz.dir/cyanomethane_2853.chk
%nproc=8
%mem=16000MB
#p B2PLYPD3/Def2QZVP 

cyanomethane

0 1
C  -6.596005  -1.129936   1.202080
C  -5.198545  -0.803920   0.833278
N  -4.085008  -0.531877   0.736203
H  -6.768576  -1.117021   2.216990
H  -6.930447  -2.002085   0.706314
H  -7.336505  -0.250909   0.762809

