%chk=/home/boittier/MDCM/nms_sampling/cyanomethane_geom.xyz.dir/cyanomethane_2416.chk
%nproc=8
%mem=16000MB
#p B2PLYPD3/Def2QZVP 

cyanomethane

0 1
C  -6.599751  -1.126973   1.156424
C  -5.204693  -0.830140   0.906730
N  -4.097258  -0.508466   0.702241
H  -6.696461  -1.183315   2.264405
H  -7.008329  -1.927085   0.695511
H  -7.041774  -0.266934   0.870151
