%chk=/home/boittier/MDCM/nms_sampling/cyanomethane_geom.xyz.dir/cyanomethane_1046.chk
%nproc=8
%mem=16000MB
#p B2PLYPD3/Def2QZVP 

cyanomethane

0 1
C  -6.595910  -1.115033   1.162664
C  -5.202265  -0.774107   0.909581
N  -4.093978  -0.547078   0.702539
H  -6.795281  -1.264324   2.246564
H  -6.824888  -2.053066   0.651015
H  -7.248879  -0.329493   0.808420
