%chk=/home/boittier/MDCM/nms_sampling/cyanomethane_geom.xyz.dir/cyanomethane_2456.chk
%nproc=8
%mem=16000MB
#p B2PLYPD3/Def2QZVP 

cyanomethane

0 1
C  -6.603405  -1.117779   1.178180
C  -5.200154  -0.770560   0.948367
N  -4.102732  -0.545431   0.677082
H  -6.623291  -1.208283   2.218083
H  -6.899571  -2.133959   0.578549
H  -7.160175  -0.326258   0.630706
