%chk=/home/boittier/MDCM/nms_sampling/cyanomethane_geom.xyz.dir/cyanomethane_1239.chk
%nproc=8
%mem=16000MB
#p B2PLYPD3/Def2QZVP 

cyanomethane

0 1
C  -6.590266  -1.096741   1.162412
C  -5.206148  -0.821532   0.924688
N  -4.096131  -0.520991   0.693228
H  -6.740056  -1.282184   2.255669
H  -6.909702  -2.035936   0.613284
H  -7.211943  -0.333458   0.804416

