%chk=/home/boittier/MDCM/nms_sampling/cyanomethane_geom.xyz.dir/cyanomethane_3362.chk
%nproc=8
%mem=16000MB
#p B2PLYPD3/Def2QZVP 

cyanomethane

0 1
C  -6.595390  -1.110706   1.172029
C  -5.207084  -0.775574   0.969400
N  -4.090483  -0.542873   0.662592
H  -6.575373  -1.306733   2.178583
H  -7.009141  -2.140470   0.543243
H  -7.279538  -0.260194   0.724646
