%chk=/home/boittier/MDCM/nms_sampling/cyanomethane_geom.xyz.dir/cyanomethane_1061.chk
%nproc=8
%mem=16000MB
#p B2PLYPD3/Def2QZVP 

cyanomethane

0 1
C  -6.603708  -1.117144   1.163907
C  -5.198742  -0.776781   0.916684
N  -4.092500  -0.545364   0.698771
H  -6.783749  -1.239184   2.215525
H  -6.819490  -2.071499   0.661326
H  -7.234103  -0.304009   0.786249
