%chk=/home/boittier/MDCM/nms_sampling/cyanomethane_geom.xyz.dir/cyanomethane_2808.chk
%nproc=8
%mem=16000MB
#p B2PLYPD3/Def2QZVP 

cyanomethane

0 1
C  -6.606782  -1.111435   1.185132
C  -5.192397  -0.857030   0.888920
N  -4.087151  -0.503523   0.708508
H  -6.717590  -1.101450   2.261515
H  -6.949388  -1.954338   0.650692
H  -7.288333  -0.278465   0.720386

