%chk=/home/boittier/MDCM/nms_sampling/cyanomethane_geom.xyz.dir/cyanomethane_3202.chk
%nproc=8
%mem=16000MB
#p B2PLYPD3/Def2QZVP 

cyanomethane

0 1
C  -6.578495  -1.107921   1.142548
C  -5.200806  -0.786766   0.974587
N  -4.105716  -0.539325   0.668633
H  -6.766342  -1.318448   2.273530
H  -6.882696  -1.996499   0.558037
H  -7.287126  -0.341657   0.817780
