%chk=/home/boittier/MDCM/nms_sampling/cyanomethane_geom.xyz.dir/cyanomethane_94.chk
%nproc=8
%mem=16000MB
#p B2PLYPD3/Def2QZVP 

cyanomethane

0 1
C  -6.595203  -1.107284   1.168509
C  -5.200958  -0.799795   0.883032
N  -4.092845  -0.534241   0.715501
H  -6.795235  -1.238983   2.249322
H  -6.860808  -2.039594   0.698931
H  -7.252701  -0.346868   0.824828
