%chk=/home/boittier/MDCM/nms_sampling/cyanomethane_geom.xyz.dir/cyanomethane_3330.chk
%nproc=8
%mem=16000MB
#p B2PLYPD3/Def2QZVP 

cyanomethane

0 1
C  -6.592746  -1.079054   1.164219
C  -5.195622  -0.857648   0.916903
N  -4.091964  -0.503682   0.696071
H  -6.741970  -1.317758   2.323352
H  -6.986036  -2.045884   0.574324
H  -7.290154  -0.308178   0.821062
