%chk=/home/boittier/MDCM/nms_sampling/cyanomethane_geom.xyz.dir/cyanomethane_2493.chk
%nproc=8
%mem=16000MB
#p B2PLYPD3/Def2QZVP 

cyanomethane

0 1
C  -6.596217  -1.110829   1.147898
C  -5.206972  -0.821628   0.866566
N  -4.096802  -0.522633   0.729675
H  -6.850920  -1.222234   2.265326
H  -6.754927  -1.970159   0.794550
H  -7.161455  -0.302984   0.956765

