%chk=/home/boittier/MDCM/nms_sampling/cyanomethane_geom.xyz.dir/cyanomethane_790.chk
%nproc=8
%mem=16000MB
#p B2PLYPD3/Def2QZVP 

cyanomethane

0 1
C  -6.600703  -1.106693   1.170338
C  -5.202884  -0.815424   0.904156
N  -4.092347  -0.525865   0.704498
H  -6.757456  -1.224097   2.239570
H  -6.837855  -2.044744   0.645865
H  -7.231701  -0.286346   0.784261

