%chk=/home/boittier/MDCM/nms_sampling/cyanomethane_geom.xyz.dir/cyanomethane_1331.chk
%nproc=8
%mem=16000MB
#p B2PLYPD3/Def2QZVP 

cyanomethane

0 1
C  -6.582364  -1.097951   1.176065
C  -5.207828  -0.840439   0.909589
N  -4.099107  -0.513265   0.701903
H  -6.787789  -1.205430   2.240342
H  -6.864175  -2.031912   0.610038
H  -7.244168  -0.297615   0.736043

