%chk=/home/boittier/MDCM/nms_sampling/cyanomethane_geom.xyz.dir/cyanomethane_3350.chk
%nproc=8
%mem=16000MB
#p B2PLYPD3/Def2QZVP 

cyanomethane

0 1
C  -6.591020  -1.103673   1.184260
C  -5.212026  -0.850238   0.894922
N  -4.103920  -0.504608   0.705178
H  -6.614159  -1.184496   2.258338
H  -6.920852  -2.051637   0.622453
H  -7.136594  -0.239545   0.739582
