%chk=/home/boittier/MDCM/nms_sampling/cyanomethane_geom.xyz.dir/cyanomethane_3557.chk
%nproc=8
%mem=16000MB
#p B2PLYPD3/Def2QZVP 

cyanomethane

0 1
C  -6.597874  -1.115758   1.180831
C  -5.205843  -0.833763   0.913998
N  -4.106756  -0.514387   0.694162
H  -6.569014  -1.091464   2.238456
H  -6.880201  -2.044391   0.670314
H  -7.175869  -0.267110   0.671756
