%chk=/home/boittier/MDCM/nms_sampling/cyanomethane_geom.xyz.dir/cyanomethane_8.chk
%nproc=8
%mem=16000MB
#p B2PLYPD3/Def2QZVP 

cyanomethane

0 1
C  -6.597064  -1.117641   1.175697
C  -5.198956  -0.791429   0.891506
N  -4.093274  -0.536576   0.710460
H  -6.788479  -1.217444   2.251419
H  -6.886737  -2.055200   0.646292
H  -7.229247  -0.292726   0.769461
