%chk=/home/boittier/MDCM/nms_sampling/cyanomethane_geom.xyz.dir/cyanomethane_3286.chk
%nproc=8
%mem=16000MB
#p B2PLYPD3/Def2QZVP 

cyanomethane

0 1
C  -6.619819  -1.086919   1.164511
C  -5.198666  -0.839446   0.913732
N  -4.081488  -0.512307   0.697167
H  -6.664397  -1.328074   2.237589
H  -6.919319  -2.100831   0.629065
H  -7.212700  -0.246349   0.862356

