%chk=/home/boittier/MDCM/nms_sampling/cyanomethane_geom.xyz.dir/cyanomethane_46.chk
%nproc=8
%mem=16000MB
#p B2PLYPD3/Def2QZVP 

cyanomethane

0 1
C  -6.599599  -1.112746   1.159409
C  -5.202735  -0.814801   0.915972
N  -4.092257  -0.524789   0.699648
H  -6.779298  -1.185867   2.252457
H  -6.855395  -2.017270   0.683764
H  -7.209413  -0.304833   0.787297

