%chk=/home/boittier/MDCM/nms_sampling/cyanomethane_geom.xyz.dir/cyanomethane_2627.chk
%nproc=8
%mem=16000MB
#p B2PLYPD3/Def2QZVP 

cyanomethane

0 1
C  -6.597925  -1.104343   1.185793
C  -5.201484  -0.845984   0.904806
N  -4.104623  -0.503572   0.699755
H  -6.631923  -1.279663   2.167920
H  -6.978911  -2.033795   0.571857
H  -7.091171  -0.194909   0.817254
