%chk=/home/boittier/MDCM/nms_sampling/cyanomethane_geom.xyz.dir/cyanomethane_187.chk
%nproc=8
%mem=16000MB
#p B2PLYPD3/Def2QZVP 

cyanomethane

0 1
C  -6.600640  -1.111971   1.162625
C  -5.200006  -0.776307   0.908412
N  -4.089119  -0.545882   0.702827
H  -6.803642  -1.278287   2.239075
H  -6.845952  -2.035157   0.651643
H  -7.257828  -0.358368   0.821735
