%chk=/home/boittier/MDCM/nms_sampling/cyanomethane_geom.xyz.dir/cyanomethane_325.chk
%nproc=8
%mem=16000MB
#p B2PLYPD3/Def2QZVP 

cyanomethane

0 1
C  -6.598270  -1.123378   1.167590
C  -5.203886  -0.767986   0.907245
N  -4.095202  -0.548568   0.702937
H  -6.766830  -1.227628   2.220628
H  -6.835186  -2.065474   0.668008
H  -7.200721  -0.310864   0.781211

