%chk=/home/boittier/MDCM/nms_sampling/cyanomethane_geom.xyz.dir/cyanomethane_131.chk
%nproc=8
%mem=16000MB
#p B2PLYPD3/Def2QZVP 

cyanomethane

0 1
C  -6.602522  -1.118711   1.163365
C  -5.198068  -0.792297   0.922635
N  -4.091542  -0.535714   0.694519
H  -6.766465  -1.201552   2.198859
H  -6.882073  -2.032757   0.679566
H  -7.224884  -0.312871   0.780471
