%chk=/home/boittier/MDCM/nms_sampling/cyanomethane_geom.xyz.dir/cyanomethane_3493.chk
%nproc=8
%mem=16000MB
#p B2PLYPD3/Def2QZVP 

cyanomethane

0 1
C  -6.619452  -1.083521   1.176484
C  -5.198380  -0.861781   0.927888
N  -4.080051  -0.503707   0.692279
H  -6.750274  -1.224237   2.228455
H  -6.835921  -2.061596   0.573803
H  -7.244245  -0.291503   0.706721
