%chk=/home/boittier/MDCM/nms_sampling/cyanomethane_geom.xyz.dir/cyanomethane_2191.chk
%nproc=8
%mem=16000MB
#p B2PLYPD3/Def2QZVP 

cyanomethane

0 1
C  -6.612195  -1.097084   1.162550
C  -5.197360  -0.825341   0.912397
N  -4.090741  -0.521230   0.697994
H  -6.669202  -1.256501   2.245304
H  -6.861842  -2.028542   0.667960
H  -7.246557  -0.326312   0.831633

