%chk=/home/boittier/MDCM/nms_sampling/cyanomethane_geom.xyz.dir/cyanomethane_1961.chk
%nproc=8
%mem=16000MB
#p B2PLYPD3/Def2QZVP 

cyanomethane

0 1
C  -6.605389  -1.119357   1.153401
C  -5.200556  -0.754552   0.911702
N  -4.086370  -0.556975   0.702770
H  -6.819458  -1.287162   2.257259
H  -6.812951  -2.088035   0.679530
H  -7.247669  -0.314340   0.843608
