%chk=/home/boittier/MDCM/nms_sampling/cyanomethane_geom.xyz.dir/cyanomethane_3119.chk
%nproc=8
%mem=16000MB
#p B2PLYPD3/Def2QZVP 

cyanomethane

0 1
C  -6.594288  -1.115087   1.169709
C  -5.204499  -0.770556   0.975938
N  -4.107420  -0.543045   0.661133
H  -6.573964  -1.313654   2.101527
H  -6.952377  -2.101914   0.559563
H  -7.144396  -0.289015   0.749409

