%chk=/home/boittier/MDCM/nms_sampling/cyanomethane_geom.xyz.dir/cyanomethane_2779.chk
%nproc=8
%mem=16000MB
#p B2PLYPD3/Def2QZVP 

cyanomethane

0 1
C  -6.611370  -1.126200   1.201721
C  -5.196889  -0.806579   0.854832
N  -4.079475  -0.527493   0.728179
H  -6.807734  -1.169529   2.297317
H  -6.923848  -2.031619   0.569310
H  -7.219407  -0.220865   0.702842

