%chk=/home/boittier/MDCM/nms_sampling/cyanomethane_geom.xyz.dir/cyanomethane_212.chk
%nproc=8
%mem=16000MB
#p B2PLYPD3/Def2QZVP 

cyanomethane

0 1
C  -6.606368  -1.112986   1.171309
C  -5.199664  -0.782741   0.902768
N  -4.088698  -0.544656   0.703987
H  -6.748992  -1.219132   2.202329
H  -6.806606  -2.064238   0.684556
H  -7.291874  -0.329791   0.776941
