%chk=/home/boittier/MDCM/nms_sampling/cyanomethane_geom.xyz.dir/cyanomethane_2332.chk
%nproc=8
%mem=16000MB
#p B2PLYPD3/Def2QZVP 

cyanomethane

0 1
C  -6.612881  -1.113027   1.167081
C  -5.196078  -0.771742   0.908108
N  -4.087656  -0.549798   0.699744
H  -6.702456  -1.238125   2.190124
H  -6.832644  -2.084951   0.710725
H  -7.290296  -0.346241   0.798259

