%chk=/home/boittier/MDCM/nms_sampling/cyanomethane_geom.xyz.dir/cyanomethane_135.chk
%nproc=8
%mem=16000MB
#p B2PLYPD3/Def2QZVP 

cyanomethane

0 1
C  -6.597988  -1.114600   1.176836
C  -5.198291  -0.792380   0.888277
N  -4.091242  -0.537083   0.711851
H  -6.791387  -1.228864   2.244461
H  -6.881129  -2.055472   0.647486
H  -7.257088  -0.299205   0.778926
