%chk=/home/boittier/MDCM/nms_sampling/cyanomethane_geom.xyz.dir/cyanomethane_3308.chk
%nproc=8
%mem=16000MB
#p B2PLYPD3/Def2QZVP 

cyanomethane

0 1
C  -6.599153  -1.092457   1.141825
C  -5.205077  -0.842808   0.903712
N  -4.093255  -0.508856   0.712412
H  -6.881780  -1.302006   2.295338
H  -6.834091  -2.086332   0.700258
H  -7.088435  -0.237300   0.917679

