%chk=/home/boittier/MDCM/nms_sampling/cyanomethane_geom.xyz.dir/cyanomethane_2070.chk
%nproc=8
%mem=16000MB
#p B2PLYPD3/Def2QZVP 

cyanomethane

0 1
C  -6.598843  -1.120072   1.183787
C  -5.205807  -0.782086   0.884313
N  -4.095095  -0.542155   0.712759
H  -6.724106  -1.232577   2.248736
H  -6.834204  -2.058698   0.613874
H  -7.216558  -0.277867   0.761338
