%chk=/home/boittier/MDCM/nms_sampling/cyanomethane_geom.xyz.dir/cyanomethane_447.chk
%nproc=8
%mem=16000MB
#p B2PLYPD3/Def2QZVP 

cyanomethane

0 1
C  -6.606548  -1.109942   1.172247
C  -5.197773  -0.792950   0.908414
N  -4.090237  -0.535642   0.699984
H  -6.722075  -1.256641   2.208745
H  -6.902742  -2.074270   0.648957
H  -7.220906  -0.310022   0.788783

