%chk=/home/boittier/MDCM/nms_sampling/cyanomethane_geom.xyz.dir/cyanomethane_3376.chk
%nproc=8
%mem=16000MB
#p B2PLYPD3/Def2QZVP 

cyanomethane

0 1
C  -6.571784  -1.104078   1.178913
C  -5.209813  -0.762224   0.885327
N  -4.103544  -0.560068   0.713349
H  -6.798617  -1.238779   2.235111
H  -6.745192  -2.131438   0.680121
H  -7.392053  -0.387326   0.730236
