%chk=/home/boittier/MDCM/nms_sampling/cyanomethane_geom.xyz.dir/cyanomethane_2902.chk
%nproc=8
%mem=16000MB
#p B2PLYPD3/Def2QZVP 

cyanomethane

0 1
C  -6.612338  -1.108203   1.172231
C  -5.191549  -0.787647   0.953329
N  -4.082949  -0.537278   0.674575
H  -6.696264  -1.249226   2.263667
H  -6.992895  -2.098631   0.545342
H  -7.268067  -0.338000   0.667842

