%chk=/home/boittier/MDCM/nms_sampling/cyanomethane_geom.xyz.dir/cyanomethane_760.chk
%nproc=8
%mem=16000MB
#p B2PLYPD3/Def2QZVP 

cyanomethane

0 1
C  -6.596099  -1.117892   1.162880
C  -5.201560  -0.797184   0.910232
N  -4.091376  -0.533137   0.701213
H  -6.785560  -1.197813   2.236163
H  -6.897619  -1.999977   0.686066
H  -7.229089  -0.341680   0.794905
