%chk=/home/boittier/MDCM/nms_sampling/cyanomethane_geom.xyz.dir/cyanomethane_1143.chk
%nproc=8
%mem=16000MB
#p B2PLYPD3/Def2QZVP 

cyanomethane

0 1
C  -6.601830  -1.121621   1.168652
C  -5.199619  -0.775398   0.901542
N  -4.092589  -0.545992   0.704233
H  -6.737926  -1.204948   2.244914
H  -6.854440  -2.044475   0.682624
H  -7.256475  -0.330679   0.777186

