%chk=/home/boittier/MDCM/nms_sampling/cyanomethane_geom.xyz.dir/cyanomethane_261.chk
%nproc=8
%mem=16000MB
#p B2PLYPD3/Def2QZVP 

cyanomethane

0 1
C  -6.589356  -1.116575   1.165392
C  -5.204839  -0.783962   0.902821
N  -4.096818  -0.539603   0.705196
H  -6.783971  -1.253371   2.249254
H  -6.888124  -2.030933   0.655186
H  -7.204958  -0.331620   0.813773

