%chk=/home/boittier/MDCM/nms_sampling/cyanomethane_geom.xyz.dir/cyanomethane_2159.chk
%nproc=8
%mem=16000MB
#p B2PLYPD3/Def2QZVP 

cyanomethane

0 1
C  -6.596946  -1.100269   1.176282
C  -5.200826  -0.808607   0.862563
N  -4.086891  -0.531820   0.725949
H  -6.824876  -1.259216   2.235804
H  -6.845036  -2.028429   0.696264
H  -7.302360  -0.354579   0.846524

