%chk=/home/boittier/MDCM/nms_sampling/cyanomethane_geom.xyz.dir/cyanomethane_2930.chk
%nproc=8
%mem=16000MB
#p B2PLYPD3/Def2QZVP 

cyanomethane

0 1
C  -6.602275  -1.094493   1.169919
C  -5.188728  -0.744494   0.902468
N  -4.086113  -0.566946   0.704425
H  -6.838532  -1.429049   2.239773
H  -6.828066  -2.082927   0.570941
H  -7.399519  -0.436781   0.847780

