%chk=/home/boittier/MDCM/nms_sampling/cyanomethane_geom.xyz.dir/cyanomethane_1601.chk
%nproc=8
%mem=16000MB
#p B2PLYPD3/Def2QZVP 

cyanomethane

0 1
C  -6.612274  -1.102484   1.181097
C  -5.199748  -0.797571   0.872243
N  -4.084481  -0.536061   0.720471
H  -6.777424  -1.285714   2.234403
H  -6.823423  -2.053031   0.637742
H  -7.233538  -0.338805   0.814678
