%chk=/home/boittier/MDCM/nms_sampling/cyanomethane_geom.xyz.dir/cyanomethane_3084.chk
%nproc=8
%mem=16000MB
#p B2PLYPD3/Def2QZVP 

cyanomethane

0 1
C  -6.619629  -1.087937   1.177558
C  -5.197907  -0.868456   0.906924
N  -4.088748  -0.503796   0.702070
H  -6.691991  -1.139496   2.169326
H  -6.735389  -2.007298   0.692089
H  -7.284092  -0.322434   0.733983

