%chk=/home/boittier/MDCM/nms_sampling/cyanomethane_geom.xyz.dir/cyanomethane_1564.chk
%nproc=8
%mem=16000MB
#p B2PLYPD3/Def2QZVP 

cyanomethane

0 1
C  -6.588435  -1.105311   1.166129
C  -5.207194  -0.808956   0.935552
N  -4.100074  -0.532128   0.686162
H  -6.691087  -1.212014   2.186163
H  -6.798574  -2.058727   0.650428
H  -7.325292  -0.285706   0.759878
