%chk=/home/boittier/MDCM/nms_sampling/cyanomethane_geom.xyz.dir/cyanomethane_1456.chk
%nproc=8
%mem=16000MB
#p B2PLYPD3/Def2QZVP 

cyanomethane

0 1
C  -6.589228  -1.100965   1.166606
C  -5.200459  -0.823522   0.909467
N  -4.098035  -0.523344   0.699723
H  -6.731090  -1.228378   2.213521
H  -6.868668  -2.005346   0.675411
H  -7.315427  -0.328565   0.817948

