%chk=/home/boittier/MDCM/nms_sampling/cyanomethane_geom.xyz.dir/cyanomethane_1103.chk
%nproc=8
%mem=16000MB
#p B2PLYPD3/Def2QZVP 

cyanomethane

0 1
C  -6.600932  -1.114356   1.174084
C  -5.200138  -0.810622   0.903317
N  -4.094975  -0.525955   0.703981
H  -6.742225  -1.197198   2.244146
H  -6.886905  -2.043351   0.642737
H  -7.191318  -0.280846   0.756441

