%chk=/home/boittier/MDCM/nms_sampling/cyanomethane_geom.xyz.dir/cyanomethane_748.chk
%nproc=8
%mem=16000MB
#p B2PLYPD3/Def2QZVP 

cyanomethane

0 1
C  -6.603534  -1.112607   1.174431
C  -5.199477  -0.811602   0.905687
N  -4.091192  -0.526023   0.702262
H  -6.739480  -1.205155   2.236402
H  -6.892010  -2.041111   0.637407
H  -7.218404  -0.281799   0.760298
