%chk=/home/boittier/MDCM/nms_sampling/cyanomethane_geom.xyz.dir/cyanomethane_487.chk
%nproc=8
%mem=16000MB
#p B2PLYPD3/Def2QZVP 

cyanomethane

0 1
C  -6.598486  -1.119903   1.167663
C  -5.204179  -0.801273   0.910175
N  -4.093952  -0.531116   0.700837
H  -6.746043  -1.178468   2.213264
H  -6.864841  -2.030054   0.685242
H  -7.203810  -0.288698   0.774927
