%chk=/home/boittier/MDCM/nms_sampling/cyanomethane_geom.xyz.dir/cyanomethane_231.chk
%nproc=8
%mem=16000MB
#p B2PLYPD3/Def2QZVP 

cyanomethane

0 1
C  -6.594725  -1.105816   1.170756
C  -5.205530  -0.813641   0.906865
N  -4.096392  -0.526816   0.703077
H  -6.752158  -1.227908   2.247146
H  -6.832978  -2.049433   0.633774
H  -7.226039  -0.294485   0.772065

