%chk=/home/boittier/MDCM/nms_sampling/cyanomethane_geom.xyz.dir/cyanomethane_2805.chk
%nproc=8
%mem=16000MB
#p B2PLYPD3/Def2QZVP 

cyanomethane

0 1
C  -6.576429  -1.101010   1.170354
C  -5.212344  -0.746452   0.882410
N  -4.101107  -0.563656   0.715923
H  -6.805251  -1.363300   2.299542
H  -6.808669  -2.108921   0.622873
H  -7.269788  -0.437451   0.813521
