%chk=/home/boittier/MDCM/nms_sampling/cyanomethane_geom.xyz.dir/cyanomethane_744.chk
%nproc=8
%mem=16000MB
#p B2PLYPD3/Def2QZVP 

cyanomethane

0 1
C  -6.590321  -1.107811   1.160725
C  -5.202498  -0.814520   0.917450
N  -4.098761  -0.523819   0.699222
H  -6.802401  -1.241534   2.240449
H  -6.881198  -2.013296   0.645870
H  -7.184045  -0.316823   0.809559
