%chk=/home/boittier/MDCM/nms_sampling/cyanomethane_geom.xyz.dir/cyanomethane_923.chk
%nproc=8
%mem=16000MB
#p B2PLYPD3/Def2QZVP 

cyanomethane

0 1
C  -6.598121  -1.119241   1.162640
C  -5.198138  -0.782056   0.926989
N  -4.092158  -0.540577   0.692321
H  -6.781790  -1.215397   2.241494
H  -6.904607  -2.040497   0.647467
H  -7.232129  -0.335451   0.757261
