%chk=/home/boittier/MDCM/nms_sampling/cyanomethane_geom.xyz.dir/cyanomethane_3337.chk
%nproc=8
%mem=16000MB
#p B2PLYPD3/Def2QZVP 

cyanomethane

0 1
C  -6.570013  -1.128974   1.195431
C  -5.204948  -0.744176   0.862880
N  -4.107737  -0.565358   0.719934
H  -6.729606  -1.183823   2.163287
H  -6.849589  -2.062077   0.707255
H  -7.374782  -0.365865   0.739982

