%chk=/home/boittier/MDCM/nms_sampling/cyanomethane_geom.xyz.dir/cyanomethane_1722.chk
%nproc=8
%mem=16000MB
#p B2PLYPD3/Def2QZVP 

cyanomethane

0 1
C  -6.597392  -1.112831   1.174826
C  -5.197685  -0.801440   0.875808
N  -4.091694  -0.530519   0.717014
H  -6.766372  -1.227916   2.256990
H  -6.949027  -2.002908   0.685034
H  -7.222644  -0.360683   0.818814
