%chk=/home/boittier/MDCM/nms_sampling/cyanomethane_geom.xyz.dir/cyanomethane_2336.chk
%nproc=8
%mem=16000MB
#p B2PLYPD3/Def2QZVP 

cyanomethane

0 1
C  -6.602673  -1.134109   1.159283
C  -5.199933  -0.784524   0.933904
N  -4.086639  -0.538250   0.688290
H  -6.765940  -1.144655   2.236327
H  -6.911108  -1.974230   0.669227
H  -7.242567  -0.305614   0.754958
