%chk=/home/boittier/MDCM/nms_sampling/cyanomethane_geom.xyz.dir/cyanomethane_1902.chk
%nproc=8
%mem=16000MB
#p B2PLYPD3/Def2QZVP 

cyanomethane

0 1
C  -6.597728  -1.109470   1.170137
C  -5.201801  -0.825040   0.914497
N  -4.087877  -0.519641   0.695516
H  -6.708034  -1.196391   2.195027
H  -6.944219  -1.994034   0.673301
H  -7.285453  -0.303457   0.797559

