%chk=/home/boittier/MDCM/nms_sampling/cyanomethane_geom.xyz.dir/cyanomethane_2823.chk
%nproc=8
%mem=16000MB
#p B2PLYPD3/Def2QZVP 

cyanomethane

0 1
C  -6.576226  -1.128582   1.180045
C  -5.201921  -0.727472   0.883464
N  -4.106143  -0.570836   0.706163
H  -6.631529  -1.255384   2.175828
H  -6.954584  -2.038512   0.722461
H  -7.350822  -0.428367   0.818527

