%chk=/home/boittier/MDCM/nms_sampling/cyanomethane_geom.xyz.dir/cyanomethane_1199.chk
%nproc=8
%mem=16000MB
#p B2PLYPD3/Def2QZVP 

cyanomethane

0 1
C  -6.605022  -1.105899   1.159314
C  -5.198486  -0.811273   0.920299
N  -4.091641  -0.526423   0.697503
H  -6.781983  -1.242527   2.219553
H  -6.860771  -2.053613   0.670672
H  -7.194191  -0.302276   0.810648
