%chk=/home/boittier/MDCM/nms_sampling/cyanomethane_geom.xyz.dir/cyanomethane_2918.chk
%nproc=8
%mem=16000MB
#p B2PLYPD3/Def2QZVP 

cyanomethane

0 1
C  -6.571949  -1.098985   1.174006
C  -5.214128  -0.788388   0.962310
N  -4.103234  -0.543758   0.671456
H  -6.701385  -1.285524   2.208778
H  -6.806415  -2.128519   0.512020
H  -7.380182  -0.278275   0.678354

