%chk=/home/boittier/MDCM/nms_sampling/cyanomethane_geom.xyz.dir/cyanomethane_1269.chk
%nproc=8
%mem=16000MB
#p B2PLYPD3/Def2QZVP 

cyanomethane

0 1
C  -6.611048  -1.117136   1.163764
C  -5.194837  -0.796811   0.880978
N  -4.088642  -0.537446   0.719604
H  -6.839501  -1.185566   2.238947
H  -6.753811  -2.037311   0.736440
H  -7.256357  -0.287609   0.827025

