%chk=/home/boittier/MDCM/nms_sampling/cyanomethane_geom.xyz.dir/cyanomethane_1475.chk
%nproc=8
%mem=16000MB
#p B2PLYPD3/Def2QZVP 

cyanomethane

0 1
C  -6.583484  -1.111978   1.176427
C  -5.208259  -0.800062   0.874157
N  -4.099126  -0.531641   0.718021
H  -6.742749  -1.255264   2.295503
H  -6.917103  -2.024662   0.640657
H  -7.214778  -0.318485   0.818505
