%chk=/home/boittier/MDCM/nms_sampling/cyanomethane_geom.xyz.dir/cyanomethane_2165.chk
%nproc=8
%mem=16000MB
#p B2PLYPD3/Def2QZVP 

cyanomethane

0 1
C  -6.597196  -1.107463   1.152332
C  -5.201930  -0.832910   0.924039
N  -4.096938  -0.515893   0.697535
H  -6.799777  -1.170498   2.242840
H  -6.826717  -2.043270   0.712287
H  -7.190169  -0.266502   0.795084
