%chk=/home/boittier/MDCM/nms_sampling/cyanomethane_geom.xyz.dir/cyanomethane_1213.chk
%nproc=8
%mem=16000MB
#p B2PLYPD3/Def2QZVP 

cyanomethane

0 1
C  -6.612618  -1.101220   1.162936
C  -5.195314  -0.826777   0.907905
N  -4.087532  -0.519257   0.702892
H  -6.756563  -1.269120   2.220955
H  -6.861975  -2.030090   0.656234
H  -7.221849  -0.269971   0.855885
