%chk=/home/boittier/MDCM/nms_sampling/cyanomethane_geom.xyz.dir/cyanomethane_510.chk
%nproc=8
%mem=16000MB
#p B2PLYPD3/Def2QZVP 

cyanomethane

0 1
C  -6.598048  -1.111966   1.164088
C  -5.200994  -0.790300   0.925752
N  -4.090652  -0.538934   0.692374
H  -6.755569  -1.225575   2.246788
H  -6.865965  -2.057532   0.640878
H  -7.284731  -0.321218   0.758451
