%chk=/home/boittier/MDCM/nms_sampling/cyanomethane_geom.xyz.dir/cyanomethane_899.chk
%nproc=8
%mem=16000MB
#p B2PLYPD3/Def2QZVP 

cyanomethane

0 1
C  -6.594224  -1.110972   1.172573
C  -5.204572  -0.813150   0.908031
N  -4.096075  -0.524545   0.701804
H  -6.752073  -1.210494   2.215560
H  -6.893339  -2.052208   0.651258
H  -7.186277  -0.284680   0.767411

