%chk=/home/boittier/MDCM/nms_sampling/cyanomethane_geom.xyz.dir/cyanomethane_2504.chk
%nproc=8
%mem=16000MB
#p B2PLYPD3/Def2QZVP 

cyanomethane

0 1
C  -6.569913  -1.139567   1.163809
C  -5.213128  -0.719457   0.887794
N  -4.103251  -0.571170   0.712682
H  -6.820571  -1.238412   2.211090
H  -6.903934  -2.061118   0.741521
H  -7.193573  -0.380887   0.828164
