%chk=/home/boittier/MDCM/nms_sampling/cyanomethane_geom.xyz.dir/cyanomethane_2659.chk
%nproc=8
%mem=16000MB
#p B2PLYPD3/Def2QZVP 

cyanomethane

0 1
C  -6.621054  -1.145683   1.162988
C  -5.201347  -0.719033   0.916974
N  -4.081272  -0.572052   0.694072
H  -6.680814  -1.199952   2.162459
H  -6.862142  -1.985828   0.728409
H  -7.209705  -0.410241   0.804264

