%chk=/home/boittier/MDCM/nms_sampling/cyanomethane_geom.xyz.dir/cyanomethane_2688.chk
%nproc=8
%mem=16000MB
#p B2PLYPD3/Def2QZVP 

cyanomethane

0 1
C  -6.609674  -1.084992   1.158543
C  -5.188512  -0.812887   0.963863
N  -4.084307  -0.528896   0.671016
H  -6.724389  -1.359033   2.253102
H  -6.917492  -2.057130   0.522284
H  -7.365670  -0.346675   0.786705

