%chk=/home/boittier/MDCM/nms_sampling/cyanomethane_geom.xyz.dir/cyanomethane_243.chk
%nproc=8
%mem=16000MB
#p B2PLYPD3/Def2QZVP 

cyanomethane

0 1
C  -6.607095  -1.119598   1.165753
C  -5.197454  -0.785758   0.888470
N  -4.090299  -0.538408   0.713420
H  -6.791848  -1.230340   2.248256
H  -6.873510  -2.051579   0.697342
H  -7.176428  -0.302904   0.825700
