%chk=/home/boittier/MDCM/nms_sampling/cyanomethane_geom.xyz.dir/cyanomethane_3406.chk
%nproc=8
%mem=16000MB
#p B2PLYPD3/Def2QZVP 

cyanomethane

0 1
C  -6.570866  -1.113340   1.161861
C  -5.207088  -0.777963   0.940344
N  -4.109132  -0.543661   0.677844
H  -6.595806  -1.239317   2.197468
H  -6.984971  -1.987810   0.678488
H  -7.321012  -0.434738   0.794139

