%chk=/home/boittier/MDCM/nms_sampling/cyanomethane_geom.xyz.dir/cyanomethane_2832.chk
%nproc=8
%mem=16000MB
#p B2PLYPD3/Def2QZVP 

cyanomethane

0 1
C  -6.595994  -1.086984   1.150500
C  -5.208360  -0.854893   0.939476
N  -4.106663  -0.502312   0.687956
H  -6.692634  -1.280659   2.225307
H  -6.851513  -2.021385   0.649423
H  -7.074237  -0.322415   0.845238

