%chk=/home/boittier/MDCM/nms_sampling/cyanomethane_geom.xyz.dir/cyanomethane_2977.chk
%nproc=8
%mem=16000MB
#p B2PLYPD3/Def2QZVP 

cyanomethane

0 1
C  -6.609998  -1.111113   1.160924
C  -5.199950  -0.791422   0.858488
N  -4.079761  -0.539167   0.736542
H  -6.987780  -1.216166   2.336686
H  -6.754120  -2.115880   0.729025
H  -7.183714  -0.294104   0.812627
