%chk=/home/boittier/MDCM/nms_sampling/cyanomethane_geom.xyz.dir/cyanomethane_574.chk
%nproc=8
%mem=16000MB
#p B2PLYPD3/Def2QZVP 

cyanomethane

0 1
C  -6.599533  -1.122467   1.170676
C  -5.200388  -0.770124   0.905078
N  -4.090126  -0.548970   0.702048
H  -6.752593  -1.196150   2.239454
H  -6.868430  -2.048672   0.676568
H  -7.281137  -0.346654   0.751995

