%chk=/home/boittier/MDCM/nms_sampling/cyanomethane_geom.xyz.dir/cyanomethane_1771.chk
%nproc=8
%mem=16000MB
#p B2PLYPD3/Def2QZVP 

cyanomethane

0 1
C  -6.600684  -1.103006   1.158477
C  -5.200670  -0.793974   0.938770
N  -4.096973  -0.538002   0.683816
H  -6.660207  -1.293675   2.227888
H  -6.839028  -2.039331   0.622327
H  -7.290422  -0.333700   0.818886
