%chk=/home/boittier/MDCM/nms_sampling/cyanomethane_geom.xyz.dir/cyanomethane_2578.chk
%nproc=8
%mem=16000MB
#p B2PLYPD3/Def2QZVP 

cyanomethane

0 1
C  -6.624775  -1.123063   1.152994
C  -5.191003  -0.721781   0.917508
N  -4.087805  -0.575276   0.700790
H  -6.797120  -1.300099   2.311194
H  -6.719922  -2.162088   0.646405
H  -7.225711  -0.318065   0.786262
