%chk=/home/boittier/MDCM/nms_sampling/cyanomethane_geom.xyz.dir/cyanomethane_2579.chk
%nproc=8
%mem=16000MB
#p B2PLYPD3/Def2QZVP 

cyanomethane

0 1
C  -6.624226  -1.130551   1.150167
C  -5.193424  -0.768857   0.946639
N  -4.088234  -0.543921   0.678019
H  -6.608308  -1.185980   2.170117
H  -6.951884  -1.999525   0.749709
H  -7.152483  -0.380690   0.812765
