%chk=/home/boittier/MDCM/nms_sampling/cyanomethane_geom.xyz.dir/cyanomethane_71.chk
%nproc=8
%mem=16000MB
#p B2PLYPD3/Def2QZVP 

cyanomethane

0 1
C  -6.602596  -1.103596   1.165040
C  -5.201938  -0.812752   0.910354
N  -4.090527  -0.526785   0.700889
H  -6.743642  -1.248556   2.243574
H  -6.865426  -2.058861   0.655772
H  -7.231434  -0.299150   0.804914
