%chk=/home/boittier/MDCM/nms_sampling/cyanomethane_geom.xyz.dir/cyanomethane_1883.chk
%nproc=8
%mem=16000MB
#p B2PLYPD3/Def2QZVP 

cyanomethane

0 1
C  -6.599482  -1.106788   1.175677
C  -5.202730  -0.805755   0.873727
N  -4.096588  -0.534463   0.720122
H  -6.749724  -1.207900   2.269214
H  -6.753184  -2.041824   0.682356
H  -7.281937  -0.317449   0.791103
