%chk=/home/boittier/MDCM/nms_sampling/cyanomethane_geom.xyz.dir/cyanomethane_505.chk
%nproc=8
%mem=16000MB
#p B2PLYPD3/Def2QZVP 

cyanomethane

0 1
C  -6.605240  -1.113703   1.172080
C  -5.200544  -0.812630   0.910054
N  -4.088656  -0.525931   0.699735
H  -6.732738  -1.184357   2.198115
H  -6.886102  -2.033824   0.674734
H  -7.232258  -0.288776   0.767713
