%chk=/home/boittier/MDCM/nms_sampling/cyanomethane_geom.xyz.dir/cyanomethane_1718.chk
%nproc=8
%mem=16000MB
#p B2PLYPD3/Def2QZVP 

cyanomethane

0 1
C  -6.597550  -1.119121   1.173522
C  -5.195982  -0.786387   0.885086
N  -4.091166  -0.536572   0.713826
H  -6.819665  -1.256262   2.218339
H  -6.952376  -2.025491   0.663811
H  -7.190067  -0.319665   0.829586

