%chk=/home/boittier/MDCM/nms_sampling/cyanomethane_geom.xyz.dir/cyanomethane_3526.chk
%nproc=8
%mem=16000MB
#p B2PLYPD3/Def2QZVP 

cyanomethane

0 1
C  -6.622578  -1.117522   1.193206
C  -5.190389  -0.823730   0.897899
N  -4.082124  -0.517895   0.705240
H  -6.737877  -1.176348   2.196972
H  -6.931314  -2.100127   0.589814
H  -7.185002  -0.163043   0.697609
