%chk=/home/boittier/MDCM/nms_sampling/cyanomethane_geom.xyz.dir/cyanomethane_453.chk
%nproc=8
%mem=16000MB
#p B2PLYPD3/Def2QZVP 

cyanomethane

0 1
C  -6.596956  -1.126142   1.160717
C  -5.199578  -0.763450   0.904468
N  -4.091733  -0.550779   0.703057
H  -6.764046  -1.225376   2.252037
H  -6.896211  -2.024991   0.699466
H  -7.259149  -0.347805   0.819439
