%chk=/home/boittier/MDCM/nms_sampling/cyanomethane_geom.xyz.dir/cyanomethane_1057.chk
%nproc=8
%mem=16000MB
#p B2PLYPD3/Def2QZVP 

cyanomethane

0 1
C  -6.605959  -1.114681   1.158355
C  -5.200588  -0.797806   0.925776
N  -4.088924  -0.533009   0.693175
H  -6.752942  -1.218611   2.204864
H  -6.871682  -2.014135   0.684627
H  -7.214020  -0.331498   0.807586

