%chk=/home/boittier/MDCM/nms_sampling/cyanomethane_geom.xyz.dir/cyanomethane_2243.chk
%nproc=8
%mem=16000MB
#p B2PLYPD3/Def2QZVP 

cyanomethane

0 1
C  -6.595992  -1.128812   1.175615
C  -5.196588  -0.772966   0.880041
N  -4.090906  -0.544931   0.718456
H  -6.872997  -1.214271   2.253244
H  -6.887725  -2.053064   0.654052
H  -7.217192  -0.271795   0.783807
