%chk=/home/boittier/MDCM/nms_sampling/cyanomethane_geom.xyz.dir/cyanomethane_527.chk
%nproc=8
%mem=16000MB
#p B2PLYPD3/Def2QZVP 

cyanomethane

0 1
C  -6.599722  -1.115718   1.161126
C  -5.200275  -0.787327   0.927471
N  -4.088838  -0.539141   0.693639
H  -6.814662  -1.228492   2.235303
H  -6.860873  -2.043043   0.639407
H  -7.244376  -0.317529   0.769862

