%chk=/home/boittier/MDCM/nms_sampling/cyanomethane_geom.xyz.dir/cyanomethane_614.chk
%nproc=8
%mem=16000MB
#p B2PLYPD3/Def2QZVP 

cyanomethane

0 1
C  -6.586238  -1.114180   1.158754
C  -5.205151  -0.784093   0.916188
N  -4.097585  -0.542345   0.699007
H  -6.794992  -1.222226   2.230467
H  -6.836812  -2.043895   0.693546
H  -7.268828  -0.343616   0.798210
