%chk=/home/boittier/MDCM/nms_sampling/cyanomethane_geom.xyz.dir/cyanomethane_1052.chk
%nproc=8
%mem=16000MB
#p B2PLYPD3/Def2QZVP 

cyanomethane

0 1
C  -6.596665  -1.115930   1.172122
C  -5.203733  -0.812708   0.909451
N  -4.094337  -0.524771   0.700861
H  -6.745808  -1.191899   2.219513
H  -6.890134  -2.038593   0.651355
H  -7.200750  -0.262332   0.766444
