%chk=/home/boittier/MDCM/nms_sampling/cyanomethane_geom.xyz.dir/cyanomethane_1731.chk
%nproc=8
%mem=16000MB
#p B2PLYPD3/Def2QZVP 

cyanomethane

0 1
C  -6.595687  -1.130712   1.160146
C  -5.196983  -0.744253   0.907409
N  -4.092475  -0.559608   0.702598
H  -6.803931  -1.250960   2.261972
H  -6.906908  -2.072315   0.677651
H  -7.243747  -0.320745   0.810660

