%chk=/home/boittier/MDCM/nms_sampling/cyanomethane_geom.xyz.dir/cyanomethane_2901.chk
%nproc=8
%mem=16000MB
#p B2PLYPD3/Def2QZVP 

cyanomethane

0 1
C  -6.598579  -1.131733   1.188917
C  -5.203674  -0.757328   0.887373
N  -4.108071  -0.553352   0.711663
H  -6.700516  -1.214962   2.257171
H  -6.787150  -2.093207   0.584140
H  -7.134865  -0.260068   0.703382

