%chk=/home/boittier/MDCM/nms_sampling/cyanomethane_geom.xyz.dir/cyanomethane_401.chk
%nproc=8
%mem=16000MB
#p B2PLYPD3/Def2QZVP 

cyanomethane

0 1
C  -6.605428  -1.108502   1.167071
C  -5.200314  -0.812155   0.910232
N  -4.089976  -0.527662   0.701029
H  -6.747532  -1.201240   2.230141
H  -6.844067  -2.053449   0.675791
H  -7.242308  -0.296073   0.774986
