%chk=/home/boittier/MDCM/nms_sampling/cyanomethane_geom.xyz.dir/cyanomethane_1683.chk
%nproc=8
%mem=16000MB
#p B2PLYPD3/Def2QZVP 

cyanomethane

0 1
C  -6.593862  -1.117608   1.158176
C  -5.206400  -0.803825   0.929207
N  -4.097390  -0.526736   0.691808
H  -6.739667  -1.218998   2.235321
H  -6.919899  -2.063157   0.662376
H  -7.135284  -0.258471   0.792910

