%chk=/home/boittier/MDCM/nms_sampling/cyanomethane_geom.xyz.dir/cyanomethane_219.chk
%nproc=8
%mem=16000MB
#p B2PLYPD3/Def2QZVP 

cyanomethane

0 1
C  -6.592359  -1.107227   1.165766
C  -5.204583  -0.797741   0.928034
N  -4.095273  -0.536020   0.690550
H  -6.731374  -1.232393   2.196117
H  -6.844437  -2.047972   0.653089
H  -7.290435  -0.330442   0.772499

