%chk=/home/boittier/MDCM/nms_sampling/cyanomethane_geom.xyz.dir/cyanomethane_63.chk
%nproc=8
%mem=16000MB
#p B2PLYPD3/Def2QZVP 

cyanomethane

0 1
C  -6.590111  -1.120850   1.165853
C  -5.204022  -0.767924   0.910567
N  -4.094954  -0.548399   0.699864
H  -6.766983  -1.254060   2.213003
H  -6.891612  -2.040248   0.664220
H  -7.244264  -0.337646   0.809356

