%chk=/home/boittier/MDCM/nms_sampling/cyanomethane_geom.xyz.dir/cyanomethane_2358.chk
%nproc=8
%mem=16000MB
#p B2PLYPD3/Def2QZVP 

cyanomethane

0 1
C  -6.600510  -1.113185   1.160356
C  -5.195705  -0.797677   0.883148
N  -4.089251  -0.533853   0.717963
H  -6.860525  -1.250350   2.290148
H  -6.867189  -2.007751   0.686299
H  -7.231106  -0.324871   0.860758
