%chk=/home/boittier/MDCM/nms_sampling/cyanomethane_geom.xyz.dir/cyanomethane_106.chk
%nproc=8
%mem=16000MB
#p B2PLYPD3/Def2QZVP 

cyanomethane

0 1
C  -6.595037  -1.115788   1.159990
C  -5.204732  -0.781234   0.908283
N  -4.095695  -0.542474   0.703285
H  -6.774993  -1.244660   2.248287
H  -6.835347  -2.066895   0.681799
H  -7.214552  -0.309364   0.814626

