%chk=/home/boittier/MDCM/nms_sampling/cyanomethane_geom.xyz.dir/cyanomethane_863.chk
%nproc=8
%mem=16000MB
#p B2PLYPD3/Def2QZVP 

cyanomethane

0 1
C  -6.607787  -1.110171   1.170778
C  -5.200301  -0.807372   0.890851
N  -4.088229  -0.530631   0.710506
H  -6.741469  -1.197828   2.253842
H  -6.838636  -2.040301   0.690067
H  -7.250120  -0.316431   0.786293

