%chk=/home/boittier/MDCM/nms_sampling/cyanomethane_geom.xyz.dir/cyanomethane_1666.chk
%nproc=8
%mem=16000MB
#p B2PLYPD3/Def2QZVP 

cyanomethane

0 1
C  -6.611902  -1.123283   1.188583
C  -5.195513  -0.788763   0.862156
N  -4.087865  -0.539622   0.723935
H  -6.755982  -1.163052   2.194924
H  -6.841463  -2.036794   0.707846
H  -7.243695  -0.306929   0.764297
