%chk=/home/boittier/MDCM/nms_sampling/cyanomethane_geom.xyz.dir/cyanomethane_1865.chk
%nproc=8
%mem=16000MB
#p B2PLYPD3/Def2QZVP 

cyanomethane

0 1
C  -6.585594  -1.117879   1.165290
C  -5.207892  -0.795979   0.877508
N  -4.098346  -0.532712   0.718756
H  -6.795369  -1.212007   2.266485
H  -6.900506  -1.988163   0.720268
H  -7.168466  -0.368235   0.840047

