%chk=/home/boittier/MDCM/nms_sampling/cyanomethane_geom.xyz.dir/cyanomethane_2639.chk
%nproc=8
%mem=16000MB
#p B2PLYPD3/Def2QZVP 

cyanomethane

0 1
C  -6.609857  -1.140295   1.151505
C  -5.190087  -0.745589   0.954465
N  -4.086187  -0.556419   0.676293
H  -6.761992  -1.201249   2.161148
H  -6.957478  -1.940881   0.685704
H  -7.237263  -0.403183   0.799173
