%chk=/home/boittier/MDCM/nms_sampling/cyanomethane_geom.xyz.dir/cyanomethane_2512.chk
%nproc=8
%mem=16000MB
#p B2PLYPD3/Def2QZVP 

cyanomethane

0 1
C  -6.626748  -1.119299   1.175033
C  -5.189680  -0.785832   0.951899
N  -4.085405  -0.540794   0.672830
H  -6.582568  -1.124564   2.172219
H  -6.898625  -2.087512   0.665760
H  -7.288742  -0.338503   0.635951

