%chk=/home/boittier/MDCM/nms_sampling/cyanomethane_geom.xyz.dir/cyanomethane_3430.chk
%nproc=8
%mem=16000MB
#p B2PLYPD3/Def2QZVP 

cyanomethane

0 1
C  -6.575289  -1.107288   1.156912
C  -5.205921  -0.816589   0.856871
N  -4.107551  -0.527965   0.737760
H  -6.980509  -1.132703   2.273398
H  -6.713127  -2.060445   0.832211
H  -7.190318  -0.350201   0.816980
