%chk=/home/boittier/MDCM/nms_sampling/cyanomethane_geom.xyz.dir/cyanomethane_198.chk
%nproc=8
%mem=16000MB
#p B2PLYPD3/Def2QZVP 

cyanomethane

0 1
C  -6.594420  -1.116021   1.178123
C  -5.204994  -0.795964   0.883313
N  -4.095558  -0.534925   0.714905
H  -6.770894  -1.219202   2.260208
H  -6.847454  -2.049297   0.641479
H  -7.213566  -0.287547   0.774383
