%chk=/home/boittier/MDCM/nms_sampling/cyanomethane_geom.xyz.dir/cyanomethane_1340.chk
%nproc=8
%mem=16000MB
#p B2PLYPD3/Def2QZVP 

cyanomethane

0 1
C  -6.589324  -1.127679   1.156337
C  -5.202352  -0.770236   0.934193
N  -4.099296  -0.546210   0.685313
H  -6.680212  -1.203122   2.239916
H  -6.931823  -1.994724   0.682481
H  -7.261532  -0.356667   0.794091

