%chk=acrolein_opt.chk
%nproc=8
%mem=16GB
#p B2PLYPD3/Def2QZVP opt freq=NoRaman 

acrolein_opt

0 1
C         -0.67146        0.34833        0.00007
O         -1.78793       -0.12036       -0.00004
C          0.56097       -0.45081        0.00002
C          1.75411        0.14282       -0.00002
H          0.44718       -1.52561        0.00002
H          1.83295        1.22166       -0.00002
H          2.67544       -0.41843       -0.00005
H         -0.51379        1.44322       -0.00007

